Mass spectrum: PS(17:0/17:0); LC-ESI-QTOF; MS2; CE: 40; R=; [M-H]-
Name: PS(17:0/17:0)
Formula: C40H78NO10P
Exact mass: 763.5363
SMILES: CCCCCCCCCCCCCCCCC(=O)OC[C@H](COP(O)(=O)OC[C@H](N)C(O)=O)OC(=O)CCCCCCCCCCCCCCCC
InChI: InChI=1S/C40H78NO10P/c1-3-5-7-9-11-13-15-17-19-21-23-25-27-29-31-38(42)48-33-36(34-49-52(46,47)50-35-37(41)40(44)45)51-39(43)32-30-28-26-24-22-20-18-16-14-12-10-8-6-4-2/h36-37H,3-35,41H2,1-2H3,(H,44,45)(H,46,47)/t36-,37+/m1/s1
Instrument: maXis plus UHR-ToF-MS, Bruker Daltonics
Instrument type: LC-ESI-QTOF
Ms type: MS2
Ion mode: NEGATIVE
Ionization: ESI
Fragmentation mode: CID
Collision energy: 40
Column name: CORTECS UPLC C18 1.6um, 2.1x150mm, Waters
Retention time: 14.393 min
Base peak: 762.5264
Precursor m/z: 762.5291
Precursor type: [M-H]-
m/z	relative intensity
134.9967	14
153.0068	233
171.009	6
175.9769	7
223.9904	8
241.0436	4
269.2493	944
270.2517	90
271.2605	7
302.0379	4
316.9844	8
325.2005	6
339.9685	6
362.0088	7
371.5409	6
392.9468	5
405.2387	999
406.0165	8
406.2414	166
407.2494	20
407.3003	7
410.5461	3
423.2481	303
424.2497	31
506.1482	6
509.136	5
557.2625	4
561.0748	6
573.0475	3
675.493	286
676.4991	107
677.2607	3
677.4879	8
678.5114	5
762.5274	21
