Mass spectrum: PG(18:0/18:0); LC-ESI-QTOF; MS2; CE: 10; R=; [M-H]-
Name: PG(18:0/18:0)
Formula: C42H83O10P
Exact mass: 778.5724
SMILES: CCCCCCCCCCCCCCCCCC(=O)OC[C@H](COP(O)(=O)OC[C@@H](O)CO)OC(=O)CCCCCCCCCCCCCCCCC
InChI: InChI=1S/C42H83O10P/c1-3-5-7-9-11-13-15-17-19-21-23-25-27-29-31-33-41(45)49-37-40(38-51-53(47,48)50-36-39(44)35-43)52-42(46)34-32-30-28-26-24-22-20-18-16-14-12-10-8-6-4-2/h39-40,43-44H,3-38H2,1-2H3,(H,47,48)/t39-,40+/m0/s1
Instrument: maXis plus UHR-ToF-MS, Bruker Daltonics
Instrument type: LC-ESI-QTOF
Ms type: MS2
Ion mode: NEGATIVE
Ionization: ESI
Fragmentation mode: CID
Collision energy: 10
Column name: CORTECS UPLC C18 1.6um, 2.1x150mm, Waters
Retention time: 15.324 min
Base peak: 777.5641
Precursor m/z: 777.5651
Precursor type: [M-H]-
m/z	relative intensity
139.0196	1
283.2638	3
777.5643	999
