Mass spectrum: PE(17:0/17:0); LC-ESI-QTOF; MS2; CE: 20; R=; [M-H]-
Name: PE(17:0/17:0)
Formula: C39H78NO8P
Exact mass: 719.5465
SMILES: P(OC[C@@H](COC(CCCCCCCCCCCCCCCC)=O)OC(CCCCCCCCCCCCCCCC)=O)(=O)(OCCN)O
InChI: InChI=1S/C39H78NO8P/c1-3-5-7-9-11-13-15-17-19-21-23-25-27-29-31-38(41)45-35-37(36-47-49(43,44)46-34-33-40)48-39(42)32-30-28-26-24-22-20-18-16-14-12-10-8-6-4-2/h37H,3-36,40H2,1-2H3,(H,43,44)/t37-/m1/s1
Instrument: maXis plus UHR-ToF-MS, Bruker Daltonics
Instrument type: LC-ESI-QTOF
Ms type: MS2
Ion mode: NEGATIVE
Ionization: ESI
Fragmentation mode: CID
Collision energy: 20
Column name: CORTECS UPLC C18 1.6um, 2.1x150mm, Waters
Retention time: 15.504 min
Base peak: 146.9655
Precursor m/z: 718.5392
Precursor type: [M-H]-
m/z	relative intensity
146.9698	557
158.9741	371
174.0316	441
191.946	999
215.037	371
248.9589	394
269.2434	696
270.2616	464
351.1397	325
361.9998	302
375.969	371
385.2056	255
423.3468	278
475.1034	325
484.1933	394
563.9666	441
571.0872	255
633.1328	232
651.5673	325
