Mass spectrum: PA(16:0/18:2(9Z,12Z)); LC-ESI-QTOF; MS2; CE: 10; R=; [M-H]-
Name: PA(16:0/18:2(9Z,12Z))
Formula: C37H69O8P
Exact mass: 672.4730
SMILES: CCCCCCCCCCCCCCCC(=O)OC[C@H](COP(O)(O)=O)OC(=O)CCCCCCC\C=C/C\C=C/CCCCC
InChI: InChI=1S/C37H69O8P/c1-3-5-7-9-11-13-15-17-18-20-22-24-26-28-30-32-37(39)45-35(34-44-46(40,41)42)33-43-36(38)31-29-27-25-23-21-19-16-14-12-10-8-6-4-2/h11,13,17-18,35H,3-10,12,14-16,19-34H2,1-2H3,(H2,40,41,42)/b13-11-,18-17-/t35-/m1/s1
Instrument: maXis plus UHR-ToF-MS, Bruker Daltonics
Instrument type: LC-ESI-QTOF
Ms type: MS2
Ion mode: NEGATIVE
Ionization: ESI
Fragmentation mode: CID
Collision energy: 10
Column name: CORTECS UPLC C18 1.6um, 2.1x150mm, Waters
Retention time: 13.052 min
Base peak: 671.4634
Precursor m/z: 671.4657
Precursor type: [M-H]-
m/z	relative intensity
201.4592	1
367.1143	1
391.2235	4
391.3926	1
415.2201	1
497.025	1
579.0612	1
669.4486	2
671.4636	999
