Mass spectrum: PS(18:0/18:0); LC-ESI-QTOF; MS2; CE: 40; R=; [M-H]-
Name: PS(18:0/18:0)
Formula: C42H82NO10P
Exact mass: 791.5676
SMILES: CCCCCCCCCCCCCCCCCC(=O)OC[C@H](COP(O)(=O)OC[C@H](N)C(O)=O)OC(=O)CCCCCCCCCCCCCCCCC
InChI: InChI=1S/C42H82NO10P/c1-3-5-7-9-11-13-15-17-19-21-23-25-27-29-31-33-40(44)50-35-38(36-51-54(48,49)52-37-39(43)42(46)47)53-41(45)34-32-30-28-26-24-22-20-18-16-14-12-10-8-6-4-2/h38-39H,3-37,43H2,1-2H3,(H,46,47)(H,48,49)/t38-,39+/m1/s1
Instrument: maXis plus UHR-ToF-MS, Bruker Daltonics
Instrument type: LC-ESI-QTOF
Ms type: MS2
Ion mode: NEGATIVE
Ionization: ESI
Fragmentation mode: CID
Collision energy: 40
Column name: CORTECS UPLC C18 1.6um, 2.1x150mm, Waters
Retention time: 15.372 min
Base peak: 146.9765
Precursor m/z: 790.5604
Precursor type: [M-H]-
m/z	relative intensity
128.0489	15
153.0058	230
154.0111	20
165.9999	49
169.0919	25
171.0133	52
204.1509	26
210.1753	12
210.9737	15
247.9622	17
264.9903	20
283.264	828
284.2665	99
294.1637	12
311.0092	12
321.9369	25
419.2535	999
420.2543	242
420.2938	17
420.9982	16
421.2612	52
437.2635	329
438.0039	13
438.0235	16
438.2692	87
439.0194	13
454.0161	11
475.9651	25
491.1414	20
504.1786	12
537.3259	12
580.0887	17
634.2072	30
703.5275	256
704.5299	108
789.55	20
790.553	153
