Mass spectrum: PA(16:0/22:6(4Z,7Z,10Z,13Z,16Z,19Z)); LC-ESI-QTOF; MS2; CE: 20; R=; [M-H]-
Name: PA(16:0/22:6(4Z,7Z,10Z,13Z,16Z,19Z))
Formula: C41H69O8P
Exact mass: 720.4730
SMILES: CCCCCCCCCCCCCCCC(=O)OC[C@H](COP(O)(O)=O)OC(=O)CC\C=C/C\C=C/C\C=C/C\C=C/C\C=C/C\C=C/CC
InChI: InChI=1S/C41H69O8P/c1-3-5-7-9-11-13-15-17-18-19-20-21-22-24-26-28-30-32-34-36-41(43)49-39(38-48-50(44,45)46)37-47-40(42)35-33-31-29-27-25-23-16-14-12-10-8-6-4-2/h5,7,11,13,17-18,20-21,24,26,30,32,39H,3-4,6,8-10,12,14-16,19,22-23,25,27-29,31,33-38H2,1-2H3,(H2,44,45,46)/b7-5-,13-11-,18-17-,21-20-,26-24-,32-30-/t39-/m1/s1
Instrument: maXis plus UHR-ToF-MS, Bruker Daltonics
Instrument type: LC-ESI-QTOF
Ms type: MS2
Ion mode: NEGATIVE
Ionization: ESI
Fragmentation mode: CID
Collision energy: 20
Column name: CORTECS UPLC C18 1.6um, 2.1x150mm, Waters
Retention time: 12.396 min
Base peak: 719.4629
Precursor m/z: 719.4657
Precursor type: [M-H]-
m/z	relative intensity
146.9631	4
152.991	2
255.2331	27
256.2281	1
290.0154	3
327.2313	7
367.2232	4
391.2236	222
392.2275	26
392.4402	2
393.2309	5
409.2342	80
410.2324	5
411.2374	3
458.2107	4
463.2242	27
464.2356	11
464.2662	2
465.1323	1
465.2261	2
481.2376	2
482.2447	3
483.2411	2
567.4184	2
570.0508	2
593.1213	2
594.1131	3
719.4615	999
