Mass spectrum: PE(18:0/20:4(5Z,8Z,11Z,14Z)); LC-ESI-QTOF; MS2; CE: 20; R=; [M-H]-
Name: PE(18:0/20:4(5Z,8Z,11Z,14Z))
Formula: C43H78NO8P
Exact mass: 767.5465
SMILES: CCCCCCCCCCCCCCCCCC(=O)OC[C@H](COP(O)(=O)OCCN)OC(=O)CCC\C=C/C\C=C/C\C=C/C\C=C/CCCCC
InChI: InChI=1S/C43H78NO8P/c1-3-5-7-9-11-13-15-17-19-20-22-24-26-28-30-32-34-36-43(46)52-41(40-51-53(47,48)50-38-37-44)39-49-42(45)35-33-31-29-27-25-23-21-18-16-14-12-10-8-6-4-2/h11,13,17,19,22,24,28,30,41H,3-10,12,14-16,18,20-21,23,25-27,29,31-40,44H2,1-2H3,(H,47,48)/b13-11-,19-17-,24-22-,30-28-/t41-/m1/s1
Instrument: maXis plus UHR-ToF-MS, Bruker Daltonics
Instrument type: LC-ESI-QTOF
Ms type: MS2
Ion mode: NEGATIVE
Ionization: ESI
Fragmentation mode: CID
Collision energy: 20
Column name: CORTECS UPLC C18 1.6um, 2.1x150mm, Waters
Retention time: 14.461 min
Base peak: 766.5345
Precursor m/z: 766.5392
Precursor type: [M-H]-
m/z	relative intensity
139.0038	1
259.2431	3
283.2627	49
284.2651	2
303.2317	121
304.1934	1
304.2321	9
304.5036	1
364.0591	2
416.5784	4
456.2032	2
459.9604	1
462.2966	6
480.3007	14
481.3113	6
482.2677	1
488.3642	1
500.2664	2
509.4848	2
697.3644	2
702.2742	2
765.5289	3
766.5339	999
