Mass spectrum: PS(16:0/18:1(9Z)); LC-ESI-QTOF; MS2; CE: 40; R=; [M-H]-
Name: PS(16:0/18:1(9Z))
Formula: C40H76NO10P
Exact mass: 761.5207
SMILES: [H][C@](N)(COP(O)(=O)OC[C@@]([H])(COC(=O)CCCCCCCCCCCCCCC)OC(=O)CCCCCCC\C=C/CCCCCCCC)C(O)=O
InChI: InChI=1S/C40H76NO10P/c1-3-5-7-9-11-13-15-17-18-20-22-24-26-28-30-32-39(43)51-36(34-49-52(46,47)50-35-37(41)40(44)45)33-48-38(42)31-29-27-25-23-21-19-16-14-12-10-8-6-4-2/h17-18,36-37H,3-16,19-35,41H2,1-2H3,(H,44,45)(H,46,47)/b18-17-/t36-,37+/m1/s1
Instrument: maXis plus UHR-ToF-MS, Bruker Daltonics
Instrument type: LC-ESI-QTOF
Ms type: MS2
Ion mode: NEGATIVE
Ionization: ESI
Fragmentation mode: CID
Collision energy: 40
Column name: CORTECS UPLC C18 1.6um, 2.1x150mm, Waters
Retention time: 13.266 min
Base peak: 760.5112
Precursor m/z: 760.5134
Precursor type: [M-H]-
m/z	relative intensity
153.0068	307
165.9999	3
171.0149	5
255.2347	792
256.2378	92
257.2411	4
281.2488	467
282.2518	68
283.2548	3
391.2231	999
392.2262	144
393.2285	9
409.2333	331
410.2361	50
411.2367	4
417.2385	362
418.2418	56
419.2455	5
435.2486	90
436.2528	13
437.2506	1
673.4789	460
674.482	129
675.4839	18
760.5113	21
