Mass spectrum: PE(18:0/22:6(4Z,7Z,10Z,13Z,16Z,19Z)); LC-ESI-QTOF; MS2; CE: 40; R=; [M-H]-
Name: PE(18:0/22:6(4Z,7Z,10Z,13Z,16Z,19Z))
Formula: C45H78NO8P
Exact mass: 791.5465
SMILES: CCCCCCCCCCCCCCCCCC(=O)OC[C@H](COP(O)(=O)OCCN)OC(=O)CC\C=C/C\C=C/C\C=C/C\C=C/C\C=C/C\C=C/CC
InChI: InChI=1S/C45H78NO8P/c1-3-5-7-9-11-13-15-17-19-20-21-22-24-26-28-30-32-34-36-38-45(48)54-43(42-53-55(49,50)52-40-39-46)41-51-44(47)37-35-33-31-29-27-25-23-18-16-14-12-10-8-6-4-2/h5,7,11,13,17,19,21-22,26,28,32,34,43H,3-4,6,8-10,12,14-16,18,20,23-25,27,29-31,33,35-42,46H2,1-2H3,(H,49,50)/b7-5-,13-11-,19-17-,22-21-,28-26-,34-32-/t43-/m1/s1
Instrument: maXis plus UHR-ToF-MS, Bruker Daltonics
Instrument type: LC-ESI-QTOF
Ms type: MS2
Ion mode: NEGATIVE
Ionization: ESI
Fragmentation mode: CID
Collision energy: 40
Column name: CORTECS UPLC C18 1.6um, 2.1x150mm, Waters
Retention time: 14.109 min
Base peak: 790.5361
Precursor m/z: 790.5392
Precursor type: [M-H]-
m/z	relative intensity
117.0705	2
133.0994	1
135.1161	4
140.0113	30
140.9975	1
149.1329	8
151.0775	1
151.113	1
153.0912	2
159.1196	1
163.0753	3
163.1487	2
169.1202	2
171.1185	1
175.1492	2
177.164	13
180.1524	1
182.1277	2
189.1608	2
191.1818	11
193.1887	2
196.0379	36
197.0398	5
203.1772	1
207.1374	2
209.1536	2
214.0478	3
215.1775	2
217.125	2
219.1372	1
219.1737	1
226.1653	1
226.964	1
229.196	43
230.1984	9
230.4868	1
233.1555	1
239.1756	1
241.1938	1
249.187	12
249.9622	1
256.2054	1
257.1612	1
258.0254	1
260.525	1
263.2525	1
264.2267	1
271.1691	2
281.1916	1
281.2263	6
283.2432	346
283.2632	619
284.2475	64
284.2651	61
285.2421	2
285.2682	5
289.0669	1
291.1732	1
293.034	1
295.4526	1
297.2203	5
297.2437	1
309.2203	2
315.2242	1
319.5505	1
325.2134	2
326.2239	1
327.2319	999
328.2346	187
329.239	18
330.0385	1
335.3951	1
406.3486	1
450.2383	4
462.2969	16
462.4913	1
463.0716	1
463.3009	3
463.3334	1
463.5613	1
464.296	3
480.3073	147
481.3109	20
482.3063	7
506.2642	7
507.2669	2
524.2742	8
525.2804	3
547.1716	1
580.3444	1
790.5343	34
