Mass spectrum: PA(16:0/16:0); LC-ESI-QTOF; MS2; CE: 40; R=; [M-H]-
Name: PA(16:0/16:0)
Formula: C35H69O8P
Exact mass: 648.4730
SMILES: CCCCCCCCCCCCCCCC(=O)OC[C@H](COP(O)(O)=O)OC(=O)CCCCCCCCCCCCCCC
InChI: InChI=1S/C35H69O8P/c1-3-5-7-9-11-13-15-17-19-21-23-25-27-29-34(36)41-31-33(32-42-44(38,39)40)43-35(37)30-28-26-24-22-20-18-16-14-12-10-8-6-4-2/h33H,3-32H2,1-2H3,(H2,38,39,40)/t33-/m1/s1
Instrument: maXis plus UHR-ToF-MS, Bruker Daltonics
Instrument type: LC-ESI-QTOF
Ms type: MS2
Ion mode: NEGATIVE
Ionization: ESI
Fragmentation mode: CID
Collision energy: 40
Column name: CORTECS UPLC C18 1.6um, 2.1x150mm, Waters
Retention time: 14.013 min
Base peak: 647.4633
Precursor m/z: 647.4657
Precursor type: [M-H]-
m/z	relative intensity
134.9857	4
150.9797	1
152.9959	231
153.9982	6
171.0075	4
255.2328	999
257.2386	11
391.2242	111
392.2272	20
409.2343	64
410.2379	10
647.4614	5
