Mass spectrum: PG(16:0/16:0); LC-ESI-QTOF; MS2; CE: 40; R=; [M-H]-
Name: PG(16:0/16:0)
Formula: C38H75O10P
Exact mass: 722.5098
SMILES: CCCCCCCCCCCCCCCC(=O)OC[C@H](COP(O)(=O)OC[C@@H](O)CO)OC(=O)CCCCCCCCCCCCCCC
InChI: InChI=1S/C38H75O10P/c1-3-5-7-9-11-13-15-17-19-21-23-25-27-29-37(41)45-33-36(34-47-49(43,44)46-32-35(40)31-39)48-38(42)30-28-26-24-22-20-18-16-14-12-10-8-6-4-2/h35-36,39-40H,3-34H2,1-2H3,(H,43,44)/t35-,36+/m0/s1
Instrument: maXis plus UHR-ToF-MS, Bruker Daltonics
Instrument type: LC-ESI-QTOF
Ms type: MS2
Ion mode: NEGATIVE
Ionization: ESI
Fragmentation mode: CID
Collision energy: 40
Column name: CORTECS UPLC C18 1.6um, 2.1x150mm, Waters
Retention time: 13.271 min
Base peak: 721.5009
Precursor m/z: 721.5025
Precursor type: [M-H]-
m/z	relative intensity
171.0147	14
227.036	8
255.2346	999
256.2379	123
257.2401	6
391.2224	36
392.2267	4
409.2343	2
465.2594	26
466.2625	4
483.2699	32
484.2726	5
721.5001	98
