Mass spectrum: PA(16:0/18:1(9Z)); LC-ESI-QTOF; MS2; CE: 20; R=; [M-H]-
Name: PA(16:0/18:1(9Z))
Formula: C37H71O8P
Exact mass: 674.4887
SMILES: [H][C@@](COC(=O)CCCCCCCCCCCCCCC)(COP(O)(O)=O)OC(=O)CCCCCCC\C=C/CCCCCCCC
InChI: InChI=1S/C37H71O8P/c1-3-5-7-9-11-13-15-17-18-20-22-24-26-28-30-32-37(39)45-35(34-44-46(40,41)42)33-43-36(38)31-29-27-25-23-21-19-16-14-12-10-8-6-4-2/h17-18,35H,3-16,19-34H2,1-2H3,(H2,40,41,42)/b18-17-/t35-/m1/s1
Instrument: maXis plus UHR-ToF-MS, Bruker Daltonics
Instrument type: LC-ESI-QTOF
Ms type: MS2
Ion mode: NEGATIVE
Ionization: ESI
Fragmentation mode: CID
Collision energy: 20
Column name: CORTECS UPLC C18 1.6um, 2.1x150mm, Waters
Retention time: 14.012 min
Base peak: 673.479
Precursor m/z: 673.4814
Precursor type: [M-H]-
m/z	relative intensity
152.9955	5
196.9657	1
255.2322	12
281.1745	1
281.2506	8
282.2529	2
335.1503	1
391.2236	96
392.2303	8
393.2328	2
409.2359	28
410.2352	5
417.2393	52
418.2429	6
419.238	1
419.2563	1
435.2476	5
436.2488	1
673.4786	999
