Mass spectrum: PG(16:0/18:2(9Z,12Z)); LC-ESI-QTOF; MS2; CE: 10; R=; [M-H]-
Name: PG(16:0/18:2(9Z,12Z))
Formula: C40H75O10P
Exact mass: 746.5098
SMILES: CCCCCCCCCCCCCCCC(=O)OC[C@H](COP(O)(=O)OC[C@@H](O)CO)OC(=O)CCCCCCC\C=C/C\C=C/CCCCC
InChI: InChI=1S/C40H75O10P/c1-3-5-7-9-11-13-15-17-18-20-22-24-26-28-30-32-40(44)50-38(36-49-51(45,46)48-34-37(42)33-41)35-47-39(43)31-29-27-25-23-21-19-16-14-12-10-8-6-4-2/h11,13,17-18,37-38,41-42H,3-10,12,14-16,19-36H2,1-2H3,(H,45,46)/b13-11-,18-17-/t37-,38+/m0/s1
Instrument: maXis plus UHR-ToF-MS, Bruker Daltonics
Instrument type: LC-ESI-QTOF
Ms type: MS2
Ion mode: NEGATIVE
Ionization: ESI
Fragmentation mode: CID
Collision energy: 10
Column name: CORTECS UPLC C18 1.6um, 2.1x150mm, Waters
Retention time: 12.373 min
Base peak: 745.5003
Precursor m/z: 745.5025
Precursor type: [M-H]-
m/z	relative intensity
279.2346	1
745.5004	999
