Mass spectrum: PE(18:0/18:2(9Z,12Z)); LC-ESI-QTOF; MS2; CE: 40; R=; [M-H]-
Name: PE(18:0/18:2(9Z,12Z))
Formula: C41H78NO8P
Exact mass: 743.5465
SMILES: C(CCCCCCCCCC)CCCCCCC(=O)OC[C@H](COP(=O)(OCCN)O)OC(=O)CCCCCCC/C=C\C/C=C\CCCCC
InChI: InChI=1S/C41H78NO8P/c1-3-5-7-9-11-13-15-17-19-21-23-25-27-29-31-33-40(43)47-37-39(38-49-51(45,46)48-36-35-42)50-41(44)34-32-30-28-26-24-22-20-18-16-14-12-10-8-6-4-2/h12,14,18,20,39H,3-11,13,15-17,19,21-38,42H2,1-2H3,(H,45,46)/b14-12-,20-18-/t39-/m1/s1
Instrument: maXis plus UHR-ToF-MS, Bruker Daltonics
Instrument type: LC-ESI-QTOF
Ms type: MS2
Ion mode: NEGATIVE
Ionization: ESI
Fragmentation mode: CID
Collision energy: 40
Column name: CORTECS UPLC C18 1.6um, 2.1x150mm, Waters
Retention time: 14.681 min
Base peak: 742.535
Precursor m/z: 742.5392
Precursor type: [M-H]-
m/z	relative intensity
140.0115	16
178.0282	1
196.0369	12
214.0491	1
279.2326	999
280.2356	150
281.2405	9
283.2635	352
284.2667	44
285.2686	4
286.2697	2
402.2385	1
458.2665	7
462.2961	10
463.3023	2
476.278	9
477.2766	2
480.3062	47
481.3087	5
482.3104	1
742.5325	25
