Mass spectrum: PE(14:0/14:0); LC-ESI-QTOF; MS2; CE: 40; R=; [M-H]-
Name: PE(14:0/14:0)
Formula: C33H66NO8P
Exact mass: 635.4526
SMILES: [H][C@@](COC(=O)CCCCCCCCCCCCC)(COP(O)(=O)OCCN)OC(=O)CCCCCCCCCCCCC
InChI: InChI=1S/C33H66NO8P/c1-3-5-7-9-11-13-15-17-19-21-23-25-32(35)39-29-31(30-41-43(37,38)40-28-27-34)42-33(36)26-24-22-20-18-16-14-12-10-8-6-4-2/h31H,3-30,34H2,1-2H3,(H,37,38)/t31-/m1/s1
Instrument: maXis plus UHR-ToF-MS, Bruker Daltonics
Instrument type: LC-ESI-QTOF
Ms type: MS2
Ion mode: NEGATIVE
Ionization: ESI
Fragmentation mode: CID
Collision energy: 40
Column name: CORTECS UPLC C18 1.6um, 2.1x150mm, Waters
Retention time: 11.909 min
Base peak: 634.4432
Precursor m/z: 634.4453
Precursor type: [M-H]-
m/z	relative intensity
140.0113	16
196.038	17
214.0473	1
227.2019	999
228.205	117
229.2069	6
406.2361	7
407.2325	2
424.2448	23
425.2474	3
634.4398	2
