Mass spectrum: PG(14:0/14:0); LC-ESI-QTOF; MS2; CE: 40; R=; [M-H]-
Name: PG(14:0/14:0)
Formula: C34H67O10P
Exact mass: 666.4472
SMILES: C([C@H](CO)O)OP(=O)(O)OC[C@H](OC(CCCCCCCCCCCCC)=O)COC(CCCCCCCCCCCCC)=O
InChI: InChI=1S/C34H67O10P/c1-3-5-7-9-11-13-15-17-19-21-23-25-33(37)41-29-32(30-43-45(39,40)42-28-31(36)27-35)44-34(38)26-24-22-20-18-16-14-12-10-8-6-4-2/h31-32,35-36H,3-30H2,1-2H3,(H,39,40)/t31-,32+/m0/s1
Instrument: maXis plus UHR-ToF-MS, Bruker Daltonics
Instrument type: LC-ESI-QTOF
Ms type: MS2
Ion mode: NEGATIVE
Ionization: ESI
Fragmentation mode: CID
Collision energy: 40
Column name: CORTECS UPLC C18 1.6um, 2.1x150mm, Waters
Retention time: 10.530 min
Base peak: 665.4388
Precursor m/z: 665.4399
Precursor type: [M-H]-
m/z	relative intensity
154.0105	1
171.0155	17
227.2054	999
228.2088	117
229.211	6
363.1927	30
364.1955	4
381.2014	2
437.2288	25
438.2308	3
455.2391	30
456.2419	4
665.4384	52
