Mass spectrum: PA(17:0/17:0); LC-ESI-QTOF; MS2; CE: 10; R=; [M-H]-
Name: PA(17:0/17:0)
Formula: C37H73O8P
Exact mass: 676.5043
SMILES: CCCCCCCCCCCCCCCCC(=O)OC[C@H](COP(O)(O)=O)OC(=O)CCCCCCCCCCCCCCCC
InChI: InChI=1S/C37H73O8P/c1-3-5-7-9-11-13-15-17-19-21-23-25-27-29-31-36(38)43-33-35(34-44-46(40,41)42)45-37(39)32-30-28-26-24-22-20-18-16-14-12-10-8-6-4-2/h35H,3-34H2,1-2H3,(H2,40,41,42)/t35-/m1/s1
Instrument: maXis plus UHR-ToF-MS, Bruker Daltonics
Instrument type: LC-ESI-QTOF
Ms type: MS2
Ion mode: NEGATIVE
Ionization: ESI
Fragmentation mode: CID
Collision energy: 10
Column name: CORTECS UPLC C18 1.6um, 2.1x150mm, Waters
Retention time: 15.131 min
Base peak: 675.4936
Precursor m/z: 675.497
Precursor type: [M-H]-
m/z	relative intensity
152.9944	2
269.2491	5
270.2581	1
405.2391	8
424.2491	1
481.4296	2
525.1465	1
675.4939	999
