Mass spectrum: PS(18:0/18:0); LC-ESI-QTOF; MS2; CE: 10; R=; [M-H]-
Name: PS(18:0/18:0)
Formula: C42H82NO10P
Exact mass: 791.5676
SMILES: CCCCCCCCCCCCCCCCCC(=O)OC[C@H](COP(O)(=O)OC[C@H](N)C(O)=O)OC(=O)CCCCCCCCCCCCCCCCC
InChI: InChI=1S/C42H82NO10P/c1-3-5-7-9-11-13-15-17-19-21-23-25-27-29-31-33-40(44)50-35-38(36-51-54(48,49)52-37-39(43)42(46)47)53-41(45)34-32-30-28-26-24-22-20-18-16-14-12-10-8-6-4-2/h38-39H,3-37,43H2,1-2H3,(H,46,47)(H,48,49)/t38-,39+/m1/s1
Instrument: maXis plus UHR-ToF-MS, Bruker Daltonics
Instrument type: LC-ESI-QTOF
Ms type: MS2
Ion mode: NEGATIVE
Ionization: ESI
Fragmentation mode: CID
Collision energy: 10
Column name: CORTECS UPLC C18 1.6um, 2.1x150mm, Waters
Retention time: 15.372 min
Base peak: 146.9765
Precursor m/z: 790.5604
Precursor type: [M-H]-
m/z	relative intensity
591.6324	44
628.1259	26
636.2335	44
789.5447	127
790.5574	999
