Mass spectrum: PS(16:0/20:4(5Z,8Z,11Z,14Z)); LC-ESI-QTOF; MS2; CE: 40; R=; [M-H]-
Name: PS(16:0/20:4(5Z,8Z,11Z,14Z))
Formula: C42H74NO10P
Exact mass: 783.5050
SMILES: [H][C@](COP(OC[C@@](COC(CCCCCCCCCCCCCCC)=O)(OC(CCC/C=C\C/C=C\C/C=C\C/C=C\CCCCC)=O)[H])(=O)O)(C(O)=O)N
InChI: InChI=1S/C42H74NO10P/c1-3-5-7-9-11-13-15-17-18-19-20-22-24-26-28-30-32-34-41(45)53-38(36-51-54(48,49)52-37-39(43)42(46)47)35-50-40(44)33-31-29-27-25-23-21-16-14-12-10-8-6-4-2/h11,13,17-18,20,22,26,28,38-39H,3-10,12,14-16,19,21,23-25,27,29-37,43H2,1-2H3,(H,46,47)(H,48,49)/b13-11-,18-17-,22-20-,28-26-/t38-,39+/m1/s1
Instrument: maXis plus UHR-ToF-MS, Bruker Daltonics
Instrument type: LC-ESI-QTOF
Ms type: MS2
Ion mode: NEGATIVE
Ionization: ESI
Fragmentation mode: CID
Collision energy: 40
Column name: CORTECS UPLC C18 1.6um, 2.1x150mm, Waters
Retention time: 12.028 min
Base peak: 782.4973
Precursor m/z: 782.4978
Precursor type: [M-H]-
m/z	relative intensity
134.9971	6
153.0056	264
171.0153	6
184.0074	1
205.2054	1
255.2348	737
256.2374	87
257.24	5
259.246	4
294.9975	1
303.2327	329
304.2364	43
305.2379	2
391.224	999
392.2265	147
393.2289	10
409.2341	372
410.2365	50
411.2371	5
439.2227	153
440.2263	22
441.2272	1
457.2338	35
458.2359	6
459.2381	1
497.2641	1
695.4644	268
696.467	91
697.4702	9
698.4763	1
782.4951	10
