Mass spectrum: PA(16:0/20:4(5Z,8Z,11Z,14Z)); LC-ESI-QTOF; MS2; CE: 10; R=; [M-H]-
Name: PA(16:0/20:4(5Z,8Z,11Z,14Z))
Formula: C39H69O8P
Exact mass: 696.4730
SMILES: CCCCCCCCCCCCCCCC(=O)OC[C@H](COP(O)(O)=O)OC(=O)CCC\C=C/C\C=C/C\C=C/C\C=C/CCCCC
InChI: InChI=1S/C39H69O8P/c1-3-5-7-9-11-13-15-17-18-19-20-22-24-26-28-30-32-34-39(41)47-37(36-46-48(42,43)44)35-45-38(40)33-31-29-27-25-23-21-16-14-12-10-8-6-4-2/h11,13,17-18,20,22,26,28,37H,3-10,12,14-16,19,21,23-25,27,29-36H2,1-2H3,(H2,42,43,44)/b13-11-,18-17-,22-20-,28-26-/t37-/m1/s1
Instrument: maXis plus UHR-ToF-MS, Bruker Daltonics
Instrument type: LC-ESI-QTOF
Ms type: MS2
Ion mode: NEGATIVE
Ionization: ESI
Fragmentation mode: CID
Collision energy: 10
Column name: CORTECS UPLC C18 1.6um, 2.1x150mm, Waters
Retention time: 12.806 min
Base peak: 695.4626
Precursor m/z: 695.4657
Precursor type: [M-H]-
m/z	relative intensity
303.2258	2
391.2218	2
439.2355	6
457.2364	1
695.4623	999
