Mass spectrum: PG(16:0/18:2(9Z,12Z)); LC-ESI-QTOF; MS2; CE: 40; R=; [M-H]-
Name: PG(16:0/18:2(9Z,12Z))
Formula: C40H75O10P
Exact mass: 746.5098
SMILES: CCCCCCCCCCCCCCCC(=O)OC[C@H](COP(O)(=O)OC[C@@H](O)CO)OC(=O)CCCCCCC\C=C/C\C=C/CCCCC
InChI: InChI=1S/C40H75O10P/c1-3-5-7-9-11-13-15-17-18-20-22-24-26-28-30-32-40(44)50-38(36-49-51(45,46)48-34-37(42)33-41)35-47-39(43)31-29-27-25-23-21-19-16-14-12-10-8-6-4-2/h11,13,17-18,37-38,41-42H,3-10,12,14-16,19-36H2,1-2H3,(H,45,46)/b13-11-,18-17-/t37-,38+/m0/s1
Instrument: maXis plus UHR-ToF-MS, Bruker Daltonics
Instrument type: LC-ESI-QTOF
Ms type: MS2
Ion mode: NEGATIVE
Ionization: ESI
Fragmentation mode: CID
Collision energy: 40
Column name: CORTECS UPLC C18 1.6um, 2.1x150mm, Waters
Retention time: 12.373 min
Base peak: 745.5003
Precursor m/z: 745.5025
Precursor type: [M-H]-
m/z	relative intensity
171.0148	19
209.0261	5
227.0368	7
255.2344	367
256.2378	43
257.2394	1
279.2334	999
280.2368	139
281.2392	9
391.2228	36
392.2263	5
409.2299	1
415.2228	6
416.2258	1
465.2589	23
466.2616	4
483.2691	42
484.2726	6
489.2591	14
490.2631	2
507.2683	7
671.4599	1
745.5002	134
