Mass spectrum: PE(18:0/18:1(9Z)); LC-ESI-QTOF; MS2; CE: 40; R=; [M-H]-
Name: PE(18:0/18:1(9Z))
Formula: C41H80NO8P
Exact mass: 745.5622
SMILES: [H][C@@](COC(=O)CCCCCCCCCCCCCCCCC)(COP(O)(=O)OCCN)OC(=O)CCCCCCC\C=C/CCCCCCCC
InChI: InChI=1S/C41H80NO8P/c1-3-5-7-9-11-13-15-17-19-21-23-25-27-29-31-33-40(43)47-37-39(38-49-51(45,46)48-36-35-42)50-41(44)34-32-30-28-26-24-22-20-18-16-14-12-10-8-6-4-2/h18,20,39H,3-17,19,21-38,42H2,1-2H3,(H,45,46)/b20-18-/t39-/m1/s1
Instrument: maXis plus UHR-ToF-MS, Bruker Daltonics
Instrument type: LC-ESI-QTOF
Ms type: MS2
Ion mode: NEGATIVE
Ionization: ESI
Fragmentation mode: CID
Collision energy: 40
Column name: CORTECS UPLC C18 1.6um, 2.1x150mm, Waters
Retention time: 15.511 min
Base peak: 744.5521
Precursor m/z: 744.5549
Precursor type: [M-H]-
m/z	relative intensity
140.0115	16
178.0266	2
196.0374	12
214.0477	2
281.2485	999
282.2514	144
283.2639	370
284.2675	53
285.2686	4
404.2505	1
460.2823	6
461.2845	1
462.2953	12
463.2997	3
478.2887	6
479.2984	1
480.3067	42
481.3105	7
482.3119	1
744.5499	30
