Mass spectrum: PG(16:0/18:1(9Z)); LC-ESI-QTOF; MS2; CE: 20; R=; [M-H]-
Name: PG(16:0/18:1(9Z))
Formula: C40H77O10P
Exact mass: 748.5254
SMILES: CCCCCCCCCCCCCCCC(=O)OC[C@H](COP(O)(=O)OC[C@@H](O)CO)OC(=O)CCCCCCC\C=C/CCCCCCCC
InChI: InChI=1S/C40H77O10P/c1-3-5-7-9-11-13-15-17-18-20-22-24-26-28-30-32-40(44)50-38(36-49-51(45,46)48-34-37(42)33-41)35-47-39(43)31-29-27-25-23-21-19-16-14-12-10-8-6-4-2/h17-18,37-38,41-42H,3-16,19-36H2,1-2H3,(H,45,46)/b18-17-/t37-,38+/m0/s1
Instrument: maXis plus UHR-ToF-MS, Bruker Daltonics
Instrument type: LC-ESI-QTOF
Ms type: MS2
Ion mode: NEGATIVE
Ionization: ESI
Fragmentation mode: CID
Collision energy: 20
Column name: CORTECS UPLC C18 1.6um, 2.1x150mm, Waters
Retention time: 13.329 min
Base peak: 747.5165
Precursor m/z: 747.5182
Precursor type: [M-H]-
m/z	relative intensity
153.0051	2
255.2343	7
281.2484	21
282.2495	1
391.2258	1
465.2587	2
747.5163	999
