Mass spectrum: PA(16:0/18:2(9Z,12Z)); LC-ESI-QTOF; MS2; CE: 40; R=; [M-H]-
Name: PA(16:0/18:2(9Z,12Z))
Formula: C37H69O8P
Exact mass: 672.4730
SMILES: CCCCCCCCCCCCCCCC(=O)OC[C@H](COP(O)(O)=O)OC(=O)CCCCCCC\C=C/C\C=C/CCCCC
InChI: InChI=1S/C37H69O8P/c1-3-5-7-9-11-13-15-17-18-20-22-24-26-28-30-32-37(39)45-35(34-44-46(40,41)42)33-43-36(38)31-29-27-25-23-21-19-16-14-12-10-8-6-4-2/h11,13,17-18,35H,3-10,12,14-16,19-34H2,1-2H3,(H2,40,41,42)/b13-11-,18-17-/t35-/m1/s1
Instrument: maXis plus UHR-ToF-MS, Bruker Daltonics
Instrument type: LC-ESI-QTOF
Ms type: MS2
Ion mode: NEGATIVE
Ionization: ESI
Fragmentation mode: CID
Collision energy: 40
Column name: CORTECS UPLC C18 1.6um, 2.1x150mm, Waters
Retention time: 13.052 min
Base peak: 671.4634
Precursor m/z: 671.4657
Precursor type: [M-H]-
m/z	relative intensity
152.9959	376
153.9992	16
171.0057	5
172.0176	1
239.0877	1
255.2328	999
256.2362	120
279.2327	500
280.2357	59
281.2392	8
373.2168	1
390.1265	1
391.2235	172
392.227	32
393.2268	4
409.2348	105
410.2394	21
411.2321	1
415.2241	61
416.2264	13
433.2333	25
434.2361	8
435.2458	1
