Mass spectrum: PS(16:0/18:1(9Z)); LC-ESI-QTOF; MS2; CE: 20; R=; [M-H]-
Name: PS(16:0/18:1(9Z))
Formula: C40H76NO10P
Exact mass: 761.5207
SMILES: [H][C@](N)(COP(O)(=O)OC[C@@]([H])(COC(=O)CCCCCCCCCCCCCCC)OC(=O)CCCCCCC\C=C/CCCCCCCC)C(O)=O
InChI: InChI=1S/C40H76NO10P/c1-3-5-7-9-11-13-15-17-18-20-22-24-26-28-30-32-39(43)51-36(34-49-52(46,47)50-35-37(41)40(44)45)33-48-38(42)31-29-27-25-23-21-19-16-14-12-10-8-6-4-2/h17-18,36-37H,3-16,19-35,41H2,1-2H3,(H,44,45)(H,46,47)/b18-17-/t36-,37+/m1/s1
Instrument: maXis plus UHR-ToF-MS, Bruker Daltonics
Instrument type: LC-ESI-QTOF
Ms type: MS2
Ion mode: NEGATIVE
Ionization: ESI
Fragmentation mode: CID
Collision energy: 20
Column name: CORTECS UPLC C18 1.6um, 2.1x150mm, Waters
Retention time: 13.266 min
Base peak: 760.5112
Precursor m/z: 760.5134
Precursor type: [M-H]-
m/z	relative intensity
153.0065	1
255.2339	2
281.2476	1
391.2217	14
392.2274	2
409.2314	2
417.2379	5
673.4781	61
674.4797	19
675.4797	2
760.5115	999
