Mass spectrum: PA(16:0/22:6(4Z,7Z,10Z,13Z,16Z,19Z)); LC-ESI-QTOF; MS2; CE: 40; R=; [M-H]-
Name: PA(16:0/22:6(4Z,7Z,10Z,13Z,16Z,19Z))
Formula: C41H69O8P
Exact mass: 720.4730
SMILES: CCCCCCCCCCCCCCCC(=O)OC[C@H](COP(O)(O)=O)OC(=O)CC\C=C/C\C=C/C\C=C/C\C=C/C\C=C/C\C=C/CC
InChI: InChI=1S/C41H69O8P/c1-3-5-7-9-11-13-15-17-18-19-20-21-22-24-26-28-30-32-34-36-41(43)49-39(38-48-50(44,45)46)37-47-40(42)35-33-31-29-27-25-23-16-14-12-10-8-6-4-2/h5,7,11,13,17-18,20-21,24,26,30,32,39H,3-4,6,8-10,12,14-16,19,22-23,25,27-29,31,33-38H2,1-2H3,(H2,44,45,46)/b7-5-,13-11-,18-17-,21-20-,26-24-,32-30-/t39-/m1/s1
Instrument: maXis plus UHR-ToF-MS, Bruker Daltonics
Instrument type: LC-ESI-QTOF
Ms type: MS2
Ion mode: NEGATIVE
Ionization: ESI
Fragmentation mode: CID
Collision energy: 40
Column name: CORTECS UPLC C18 1.6um, 2.1x150mm, Waters
Retention time: 12.396 min
Base peak: 719.4629
Precursor m/z: 719.4657
Precursor type: [M-H]-
m/z	relative intensity
133.1021	1
134.9855	6
146.964	1
147.1161	2
152.9958	382
153.9985	9
163.15	2
171.0075	10
172.0085	1
177.1648	2
203.1799	3
208.9804	1
217.1949	1
227.1807	1
229.193	14
241.1967	1
249.1835	1
254.2566	2
255.2323	999
256.2349	144
257.2399	13
281.2311	1
283.2424	56
284.246	6
312.3948	1
327.2317	148
328.2361	16
328.3508	2
329.2329	3
329.2491	1
330.2315	1
391.224	222
392.2276	44
393.2283	4
401.0988	1
409.2342	141
410.237	29
411.2452	6
446.0411	1
456.1406	1
463.2217	22
464.2258	7
465.224	1
481.2367	10
482.2396	3
483.3347	1
524.103	1
555.188	1
719.4598	8
