Mass spectrum: PE(16:0/20:4(5Z,8Z,11Z,14Z)); LC-ESI-QTOF; MS2; CE: 40; R=; [M-H]-
Name: PE(16:0/20:4(5Z,8Z,11Z,14Z))
Formula: C41H74NO8P
Exact mass: 739.5152
SMILES: CCCCCCCCCCCCCCCC(=O)OC[C@H](COP(O)(=O)OCCN)OC(=O)CCC\C=C/C\C=C/C\C=C/C\C=C/CCCCC
InChI: InChI=1S/C41H74NO8P/c1-3-5-7-9-11-13-15-17-18-19-20-22-24-26-28-30-32-34-41(44)50-39(38-49-51(45,46)48-36-35-42)37-47-40(43)33-31-29-27-25-23-21-16-14-12-10-8-6-4-2/h11,13,17-18,20,22,26,28,39H,3-10,12,14-16,19,21,23-25,27,29-38,42H2,1-2H3,(H,45,46)/b13-11-,18-17-,22-20-,28-26-/t39-/m1/s1
Instrument: maXis plus UHR-ToF-MS, Bruker Daltonics
Instrument type: LC-ESI-QTOF
Ms type: MS2
Ion mode: NEGATIVE
Ionization: ESI
Fragmentation mode: CID
Collision energy: 40
Column name: CORTECS UPLC C18 1.6um, 2.1x150mm, Waters
Retention time: 13.341 min
Base peak: 738.5042
Precursor m/z: 738.5079
Precursor type: [M-H]-
m/z	relative intensity
140.0111	21
151.1492	1
163.0748	1
166.0979	1
177.0936	1
178.0274	1
179.1808	1
189.114	1
196.0369	23
197.1544	1
205.1956	12
206.1993	2
214.0475	1
231.2111	3
255.2323	391
256.2359	43
257.2099	1
257.2396	2
259.2422	62
260.2466	10
260.2697	1
273.2224	2
285.2228	2
286.2239	1
301.2162	2
303.2324	999
304.2352	141
305.2379	12
434.2638	13
452.276	75
453.2794	13
454.2831	1
454.295	1
482.2615	2
483.2714	1
500.2711	4
581.0101	1
738.5048	12
