Mass spectrum: PS(17:0/17:0); LC-ESI-QTOF; MS2; CE: 10; R=; [M-H]-
Name: PS(17:0/17:0)
Formula: C40H78NO10P
Exact mass: 763.5363
SMILES: CCCCCCCCCCCCCCCCC(=O)OC[C@H](COP(O)(=O)OC[C@H](N)C(O)=O)OC(=O)CCCCCCCCCCCCCCCC
InChI: InChI=1S/C40H78NO10P/c1-3-5-7-9-11-13-15-17-19-21-23-25-27-29-31-38(42)48-33-36(34-49-52(46,47)50-35-37(41)40(44)45)51-39(43)32-30-28-26-24-22-20-18-16-14-12-10-8-6-4-2/h36-37H,3-35,41H2,1-2H3,(H,44,45)(H,46,47)/t36-,37+/m1/s1
Instrument: maXis plus UHR-ToF-MS, Bruker Daltonics
Instrument type: LC-ESI-QTOF
Ms type: MS2
Ion mode: NEGATIVE
Ionization: ESI
Fragmentation mode: CID
Collision energy: 10
Column name: CORTECS UPLC C18 1.6um, 2.1x150mm, Waters
Retention time: 14.393 min
Base peak: 762.5264
Precursor m/z: 762.5291
Precursor type: [M-H]-
m/z	relative intensity
213.9398	12
249.9677	14
367.1693	10
405.2445	10
488.9939	6
676.4866	10
760.5151	7
762.5267	999
