Mass spectrum: PE(18:0/18:0); LC-ESI-QTOF; MS2; CE: 40; R=; [M-H]-
Name: PE(18:0/18:0)
Formula: C41H82NO8P
Exact mass: 747.5778
SMILES: CCCCCCCCCCCCCCCCCC(=O)OCC(COP(O)(=O)OCCN)OC(=O)CCCCCCCCCCCCCCCCC
InChI: InChI=1S/C41H82NO8P/c1-3-5-7-9-11-13-15-17-19-21-23-25-27-29-31-33-40(43)47-37-39(38-49-51(45,46)48-36-35-42)50-41(44)34-32-30-28-26-24-22-20-18-16-14-12-10-8-6-4-2/h39H,3-38,42H2,1-2H3,(H,45,46)
Instrument: maXis plus UHR-ToF-MS, Bruker Daltonics
Instrument type: LC-ESI-QTOF
Ms type: MS2
Ion mode: NEGATIVE
Ionization: ESI
Fragmentation mode: CID
Collision energy: 40
Column name: CORTECS UPLC C18 1.6um, 2.1x150mm, Waters
Retention time: 16.377 min
Base peak: 146.9653
Precursor m/z: 746.5705
Precursor type: [M-H]-
m/z	relative intensity
129.5625	149
146.9655	102
235.0737	56
252.0931	84
283.2635	999
283.5241	65
284.266	74
305.9547	51
348.943	121
356.3979	42
384.9909	42
403.0424	56
418.3098	60
435.3899	46
549.0036	42
