Mass spectrum: PA(18:0/18:0); LC-ESI-QTOF; MS2; CE: 40; R=; [M-H]-
Name: PA(18:0/18:0)
Formula: C39H77O8P
Exact mass: 704.5356
SMILES: CCCCCCCCCCCCCCCCCC(=O)OC[C@H](COP(O)(O)=O)OC(=O)CCCCCCCCCCCCCCCCC
InChI: InChI=1S/C39H77O8P/c1-3-5-7-9-11-13-15-17-19-21-23-25-27-29-31-33-38(40)45-35-37(36-46-48(42,43)44)47-39(41)34-32-30-28-26-24-22-20-18-16-14-12-10-8-6-4-2/h37H,3-36H2,1-2H3,(H2,42,43,44)/t37-/m1/s1
Instrument: maXis plus UHR-ToF-MS, Bruker Daltonics
Instrument type: LC-ESI-QTOF
Ms type: MS2
Ion mode: NEGATIVE
Ionization: ESI
Fragmentation mode: CID
Collision energy: 40
Column name: CORTECS UPLC C18 1.6um, 2.1x150mm, Waters
Retention time: 16.259 min
Base peak: 703.523
Precursor m/z: 703.5283
Precursor type: [M-H]-
m/z	relative intensity
146.963	4
152.9963	267
195.97	4
197.1538	5
255.2307	5
279.9439	6
283.2632	999
284.2662	182
285.042	7
285.2749	13
297.2726	6
308.0331	4
365.1434	5
372.9554	5
414.2251	3
419.2539	291
420.2575	41
420.54	4
421.2575	5
422.5529	4
430.9834	5
432.0693	5
437.2637	64
438.2716	23
438.3054	3
439.2667	5
559.279	4
591.1345	6
619.2823	5
623.4893	4
703.5238	17
