Mass spectrum: PE(16:0/16:0); LC-ESI-QTOF; MS2; CE: 10; R=; [M-H]-
Name: PE(16:0/16:0)
Formula: C37H74NO8P
Exact mass: 691.5152
SMILES: [H][C@@](COC(=O)CCCCCCCCCCCCCCC)(COP(O)(=O)OCCN)OC(=O)CCCCCCCCCCCCCCC
InChI: InChI=1S/C37H74NO8P/c1-3-5-7-9-11-13-15-17-19-21-23-25-27-29-36(39)43-33-35(34-45-47(41,42)44-32-31-38)46-37(40)30-28-26-24-22-20-18-16-14-12-10-8-6-4-2/h35H,3-34,38H2,1-2H3,(H,41,42)/t35-/m1/s1
Instrument: maXis plus UHR-ToF-MS, Bruker Daltonics
Instrument type: LC-ESI-QTOF
Ms type: MS2
Ion mode: NEGATIVE
Ionization: ESI
Fragmentation mode: CID
Collision energy: 10
Column name: CORTECS UPLC C18 1.6um, 2.1x150mm, Waters
Retention time: 14.439 min
Base peak: 146.9653
Precursor m/z: 690.5079
Precursor type: [M-H]-
m/z	relative intensity
146.9645	23
255.2328	21
257.1123	12
379.2517	24
434.2696	14
443.2899	11
690.5011	999
