Mass spectrum: PE(17:0/17:0); LC-ESI-QTOF; MS2; CE: 40; R=; [M-H]-
Name: PE(17:0/17:0)
Formula: C39H78NO8P
Exact mass: 719.5465
SMILES: P(OC[C@@H](COC(CCCCCCCCCCCCCCCC)=O)OC(CCCCCCCCCCCCCCCC)=O)(=O)(OCCN)O
InChI: InChI=1S/C39H78NO8P/c1-3-5-7-9-11-13-15-17-19-21-23-25-27-29-31-38(41)45-35-37(36-47-49(43,44)46-34-33-40)48-39(42)32-30-28-26-24-22-20-18-16-14-12-10-8-6-4-2/h37H,3-36,40H2,1-2H3,(H,43,44)/t37-/m1/s1
Instrument: maXis plus UHR-ToF-MS, Bruker Daltonics
Instrument type: LC-ESI-QTOF
Ms type: MS2
Ion mode: NEGATIVE
Ionization: ESI
Fragmentation mode: CID
Collision energy: 40
Column name: CORTECS UPLC C18 1.6um, 2.1x150mm, Waters
Retention time: 15.504 min
Base peak: 146.9655
Precursor m/z: 718.5392
Precursor type: [M-H]-
m/z	relative intensity
151.0754	38
159.0453	13
162.1872	39
180.9709	36
197.9609	24
224.9883	36
237.9613	38
240.9577	13
257.436	21
269.2482	999
270.2493	138
276.0942	38
285.0401	21
287.4224	21
289.1367	16
310.9379	38
364.0101	16
390.1385	30
397.1089	25
402.1148	27
448.2876	24
463.1619	36
466.3341	25
478.4836	18
525.1322	31
568.4803	30
577.3477	15
578.2672	24
609.1356	16
671.4937	24
718.5342	21
