Mass spectrum: PG(16:0/22:6(4Z,7Z,10Z,13Z,16Z,19Z)); LC-ESI-QTOF; MS2; CE: 40; R=; [M-H]-
Name: PG(16:0/22:6(4Z,7Z,10Z,13Z,16Z,19Z))
Formula: C44H75O10P
Exact mass: 794.5098
SMILES: C([C@@](COC(CCCCCCCCCCCCCCC)=O)(OC(CC/C=C\C/C=C\C/C=C\C/C=C\C/C=C\C/C=C\CC)=O)[H])OP(=O)(O)OC[C@@](CO)([H])O
InChI: InChI=1S/C44H75O10P/c1-3-5-7-9-11-13-15-17-18-19-20-21-22-24-26-28-30-32-34-36-44(48)54-42(40-53-55(49,50)52-38-41(46)37-45)39-51-43(47)35-33-31-29-27-25-23-16-14-12-10-8-6-4-2/h5,7,11,13,17-18,20-21,24,26,30,32,41-42,45-46H,3-4,6,8-10,12,14-16,19,22-23,25,27-29,31,33-40H2,1-2H3,(H,49,50)/b7-5-,13-11-,18-17-,21-20-,26-24-,32-30-/t41-,42+/m0/s1
Instrument: maXis plus UHR-ToF-MS, Bruker Daltonics
Instrument type: LC-ESI-QTOF
Ms type: MS2
Ion mode: NEGATIVE
Ionization: ESI
Fragmentation mode: CID
Collision energy: 40
Column name: CORTECS UPLC C18 1.6um, 2.1x150mm, Waters
Retention time: 11.767 min
Base peak: 793.5009
Precursor m/z: 793.5025
Precursor type: [M-H]-
m/z	relative intensity
133.1164	1
137.1455	1
171.0141	28
172.0181	3
177.0993	1
177.172	11
181.1244	1
191.1855	15
203.1865	2
205.1309	1
207.1454	1
210.0305	1
217.2003	1
227.0352	11
229.1991	45
230.2016	7
241.1978	1
249.1881	12
250.1919	1
255.2342	461
256.2373	47
257.2386	1
282.2269	1
283.2432	305
284.2464	49
285.251	1
297.2209	1
298.228	1
309.2197	2
327.2317	999
328.2349	149
329.2388	8
391.2224	21
392.225	3
409.231	4
463.2216	6
464.2294	1
465.2591	31
466.262	4
483.2699	103
484.2735	16
485.2804	1
537.2586	12
538.2632	2
555.2699	6
556.2704	2
793.5004	185
