Mass spectrum: PE(16:0/16:0); LC-ESI-QTOF; MS2; CE: 40; R=; [M-H]-
Name: PE(16:0/16:0)
Formula: C37H74NO8P
Exact mass: 691.5152
SMILES: [H][C@@](COC(=O)CCCCCCCCCCCCCCC)(COP(O)(=O)OCCN)OC(=O)CCCCCCCCCCCCCCC
InChI: InChI=1S/C37H74NO8P/c1-3-5-7-9-11-13-15-17-19-21-23-25-27-29-36(39)43-33-35(34-45-47(41,42)44-32-31-38)46-37(40)30-28-26-24-22-20-18-16-14-12-10-8-6-4-2/h35H,3-34,38H2,1-2H3,(H,41,42)/t35-/m1/s1
Instrument: maXis plus UHR-ToF-MS, Bruker Daltonics
Instrument type: LC-ESI-QTOF
Ms type: MS2
Ion mode: NEGATIVE
Ionization: ESI
Fragmentation mode: CID
Collision energy: 40
Column name: CORTECS UPLC C18 1.6um, 2.1x150mm, Waters
Retention time: 14.439 min
Base peak: 146.9653
Precursor m/z: 690.5079
Precursor type: [M-H]-
m/z	relative intensity
101.9879	4
124.0041	4
140.0107	22
165.9769	3
187.3552	2
196.0387	14
196.0646	5
209.1535	2
222.9865	6
247.2042	5
255.2323	999
256.2354	100
257.235	3
257.3261	4
260.3916	2
336.94	4
368.0773	3
385.1879	3
403.1969	5
434.2621	13
442.2147	3
452.2738	30
453.2789	14
478.0134	2
583.0531	2
643.2522	3
645.5232	2
690.5045	9
