Mass spectrum: PE(16:0/18:2(9Z,12Z)); LC-ESI-QTOF; MS2; CE: 40; R=; [M-H]-
Name: PE(16:0/18:2(9Z,12Z))
Formula: C39H74NO8P
Exact mass: 715.5152
SMILES: [H][C@@](COC(=O)CCCCCCCCCCCCCCC)(COP(O)(=O)OCCN)OC(=O)CCCCCCC\C=C/C\C=C/CCCCC
InChI: InChI=1S/C39H74NO8P/c1-3-5-7-9-11-13-15-17-18-20-22-24-26-28-30-32-39(42)48-37(36-47-49(43,44)46-34-33-40)35-45-38(41)31-29-27-25-23-21-19-16-14-12-10-8-6-4-2/h11,13,17-18,37H,3-10,12,14-16,19-36,40H2,1-2H3,(H,43,44)/b13-11-,18-17-/t37-/m1/s1
Instrument: maXis plus UHR-ToF-MS, Bruker Daltonics
Instrument type: LC-ESI-QTOF
Ms type: MS2
Ion mode: NEGATIVE
Ionization: ESI
Fragmentation mode: CID
Collision energy: 40
Column name: CORTECS UPLC C18 1.6um, 2.1x150mm, Waters
Retention time: 13.561 min
Base peak: 714.505
Precursor m/z: 714.5079
Precursor type: [M-H]-
m/z	relative intensity
140.0117	17
178.0271	2
196.0373	17
255.2327	422
256.2363	48
257.239	1
261.2232	1
279.2326	999
280.2354	151
281.2373	8
290.3509	1
434.2642	6
435.2682	2
452.2763	45
453.2772	7
454.2802	1
458.2657	6
476.2754	5
477.2806	1
