Mass spectrum: PS(16:0/22:6(4Z,7Z,10Z,13Z,16Z,19Z)); LC-ESI-QTOF; MS2; CE: 20; R=; [M-H]-
Name: PS(16:0/22:6(4Z,7Z,10Z,13Z,16Z,19Z))
Formula: C44H74NO10P
Exact mass: 807.5050
SMILES: CCCCCCCCCCCCCCCC(=O)OC[C@H](COP(O)(=O)OC[C@H](N)C(O)=O)OC(=O)CC\C=C/C\C=C/C\C=C/C\C=C/C\C=C/C\C=C/CC
InChI: InChI=1S/C44H74NO10P/c1-3-5-7-9-11-13-15-17-18-19-20-21-22-24-26-28-30-32-34-36-43(47)55-40(38-53-56(50,51)54-39-41(45)44(48)49)37-52-42(46)35-33-31-29-27-25-23-16-14-12-10-8-6-4-2/h5,7,11,13,17-18,20-21,24,26,30,32,40-41H,3-4,6,8-10,12,14-16,19,22-23,25,27-29,31,33-39,45H2,1-2H3,(H,48,49)(H,50,51)/b7-5-,13-11-,18-17-,21-20-,26-24-,32-30-/t40-,41+/m1/s1
Instrument: maXis plus UHR-ToF-MS, Bruker Daltonics
Instrument type: LC-ESI-QTOF
Ms type: MS2
Ion mode: NEGATIVE
Ionization: ESI
Fragmentation mode: CID
Collision energy: 20
Column name: CORTECS UPLC C18 1.6um, 2.1x150mm, Waters
Retention time: 11.629 min
Base peak: 806.4965
Precursor m/z: 806.4978
Precursor type: [M-H]-
m/z	relative intensity
153.0057	4
165.0506	1
255.2318	3
255.2486	1
327.2343	3
391.2246	13
392.2233	4
409.2276	4
410.2467	1
459.0161	2
468.4041	1
481.2368	2
496.2615	1
719.4625	45
720.0543	1
720.4633	16
721.4658	2
805.4855	1
806.4958	999
