Mass spectrum: PA(14:0/14:0); LC-ESI-QTOF; MS2; CE: 40; R=; [M-H]-
Name: PA(14:0/14:0)
Formula: C31H61O8P
Exact mass: 592.4104
SMILES: CCCCCCCCCCCCCC(=O)OC[C@H](COP(O)(O)=O)OC(=O)CCCCCCCCCCCCC
InChI: InChI=1S/C31H61O8P/c1-3-5-7-9-11-13-15-17-19-21-23-25-30(32)37-27-29(28-38-40(34,35)36)39-31(33)26-24-22-20-18-16-14-12-10-8-6-4-2/h29H,3-28H2,1-2H3,(H2,34,35,36)/t29-/m1/s1
Instrument: maXis plus UHR-ToF-MS, Bruker Daltonics
Instrument type: LC-ESI-QTOF
Ms type: MS2
Ion mode: NEGATIVE
Ionization: ESI
Fragmentation mode: CID
Collision energy: 40
Column name: CORTECS UPLC C18 1.6um, 2.1x150mm, Waters
Retention time: 11.284 min
Base peak: 591.4018
Precursor m/z: 591.4031
Precursor type: [M-H]-
m/z	relative intensity
134.9858	3
150.9813	1
152.996	289
171.0068	6
227.2018	999
228.2048	116
363.1941	48
364.1992	6
365.1997	1
381.2032	34
382.2068	6
383.2152	1
