Mass spectrum: PE(18:0/18:1(9Z)); LC-ESI-QTOF; MS2; CE: 10; R=; [M-H]-
Name: PE(18:0/18:1(9Z))
Formula: C41H80NO8P
Exact mass: 745.5622
SMILES: [H][C@@](COC(=O)CCCCCCCCCCCCCCCCC)(COP(O)(=O)OCCN)OC(=O)CCCCCCC\C=C/CCCCCCCC
InChI: InChI=1S/C41H80NO8P/c1-3-5-7-9-11-13-15-17-19-21-23-25-27-29-31-33-40(43)47-37-39(38-49-51(45,46)48-36-35-42)50-41(44)34-32-30-28-26-24-22-20-18-16-14-12-10-8-6-4-2/h18,20,39H,3-17,19,21-38,42H2,1-2H3,(H,45,46)/b20-18-/t39-/m1/s1
Instrument: maXis plus UHR-ToF-MS, Bruker Daltonics
Instrument type: LC-ESI-QTOF
Ms type: MS2
Ion mode: NEGATIVE
Ionization: ESI
Fragmentation mode: CID
Collision energy: 10
Column name: CORTECS UPLC C18 1.6um, 2.1x150mm, Waters
Retention time: 15.511 min
Base peak: 744.5521
Precursor m/z: 744.5549
Precursor type: [M-H]-
m/z	relative intensity
281.2487	6
283.259	1
480.3104	1
744.5514	999
