Mass spectrum: PE(18:0/20:4(5Z,8Z,11Z,14Z)); LC-ESI-QTOF; MS2; CE: 40; R=; [M-H]-
Name: PE(18:0/20:4(5Z,8Z,11Z,14Z))
Formula: C43H78NO8P
Exact mass: 767.5465
SMILES: CCCCCCCCCCCCCCCCCC(=O)OC[C@H](COP(O)(=O)OCCN)OC(=O)CCC\C=C/C\C=C/C\C=C/C\C=C/CCCCC
InChI: InChI=1S/C43H78NO8P/c1-3-5-7-9-11-13-15-17-19-20-22-24-26-28-30-32-34-36-43(46)52-41(40-51-53(47,48)50-38-37-44)39-49-42(45)35-33-31-29-27-25-23-21-18-16-14-12-10-8-6-4-2/h11,13,17,19,22,24,28,30,41H,3-10,12,14-16,18,20-21,23,25-27,29,31-40,44H2,1-2H3,(H,47,48)/b13-11-,19-17-,24-22-,30-28-/t41-/m1/s1
Instrument: maXis plus UHR-ToF-MS, Bruker Daltonics
Instrument type: LC-ESI-QTOF
Ms type: MS2
Ion mode: NEGATIVE
Ionization: ESI
Fragmentation mode: CID
Collision energy: 40
Column name: CORTECS UPLC C18 1.6um, 2.1x150mm, Waters
Retention time: 14.461 min
Base peak: 766.5345
Precursor m/z: 766.5392
Precursor type: [M-H]-
m/z	relative intensity
140.0109	20
177.0934	2
178.0266	3
191.1057	3
193.164	1
196.0372	16
198.0504	1
198.4014	1
201.1654	1
205.1949	7
206.2008	2
217.1924	1
259.2421	57
260.2466	6
266.4547	1
278.1325	1
283.2634	369
284.2663	61
285.2176	1
285.2672	3
303.2323	999
304.2356	144
305.2381	4
306.2453	1
322.2391	1
419.2442	1
426.2372	1
462.2957	16
463.3007	1
464.3055	2
480.3061	61
481.3087	11
482.2659	6
500.2768	3
501.2818	1
766.5331	25
