Mass spectrum: PE(16:0/22:6(4Z,7Z,10Z,13Z,16Z,19Z)); LC-ESI-QTOF; MS2; CE: 20; R=; [M-H]-
Name: PE(16:0/22:6(4Z,7Z,10Z,13Z,16Z,19Z))
Formula: C43H74NO8P
Exact mass: 763.5152
SMILES: CCCCCCCCCCCCCCCC(=O)OC[C@H](COP(O)(=O)OCCN)OC(=O)CC\C=C/C\C=C/C\C=C/C\C=C/C\C=C/C\C=C/CC
InChI: InChI=1S/C43H74NO8P/c1-3-5-7-9-11-13-15-17-18-19-20-21-22-24-26-28-30-32-34-36-43(46)52-41(40-51-53(47,48)50-38-37-44)39-49-42(45)35-33-31-29-27-25-23-16-14-12-10-8-6-4-2/h5,7,11,13,17-18,20-21,24,26,30,32,41H,3-4,6,8-10,12,14-16,19,22-23,25,27-29,31,33-40,44H2,1-2H3,(H,47,48)/b7-5-,13-11-,18-17-,21-20-,26-24-,32-30-/t41-/m1/s1
Instrument: maXis plus UHR-ToF-MS, Bruker Daltonics
Instrument type: LC-ESI-QTOF
Ms type: MS2
Ion mode: NEGATIVE
Ionization: ESI
Fragmentation mode: CID
Collision energy: 20
Column name: CORTECS UPLC C18 1.6um, 2.1x150mm, Waters
Retention time: 12.931 min
Base peak: 762.504
Precursor m/z: 762.5079
Precursor type: [M-H]-
m/z	relative intensity
136.017	2
139.0114	3
205.195	2
229.1972	4
255.2314	45
256.2405	4
257.2368	4
283.2434	9
284.2373	1
288.1327	1
327.2309	97
328.233	18
329.0037	1
329.2412	2
378.2361	2
434.2581	1
452.2762	22
494.0089	1
506.2651	2
506.2901	1
524.2766	1
762.5043	999
