Mass spectrum: PE(16:0/18:1(9Z)); LC-ESI-QTOF; MS2; CE: 20; R=; [M-H]-
Name: PE(16:0/18:1(9Z))
Formula: C39H76NO8P
Exact mass: 717.5309
SMILES: [H][C@@](COC(=O)CCCCCCCCCCCCCCC)(COP(O)(=O)OCCN)OC(=O)CCCCCCC\C=C/CCCCCCCC
InChI: InChI=1S/C39H76NO8P/c1-3-5-7-9-11-13-15-17-18-20-22-24-26-28-30-32-39(42)48-37(36-47-49(43,44)46-34-33-40)35-45-38(41)31-29-27-25-23-21-19-16-14-12-10-8-6-4-2/h17-18,37H,3-16,19-36,40H2,1-2H3,(H,43,44)/b18-17-/t37-/m1/s1
Instrument: maXis plus UHR-ToF-MS, Bruker Daltonics
Instrument type: LC-ESI-QTOF
Ms type: MS2
Ion mode: NEGATIVE
Ionization: ESI
Fragmentation mode: CID
Collision energy: 20
Column name: CORTECS UPLC C18 1.6um, 2.1x150mm, Waters
Retention time: 14.487 min
Base peak: 716.5206
Precursor m/z: 716.5236
Precursor type: [M-H]-
m/z	relative intensity
255.2324	34
256.2371	3
257.2428	1
281.2478	81
282.2531	10
434.2645	2
452.2766	6
460.2797	3
478.2915	2
713.496	1
716.5209	999
