Mass spectrum: PS(14:0/14:0); LC-ESI-QTOF; MS2; CE: 40; R=; [M-H]-
Name: PS(14:0/14:0)
Formula: C34H66NO10P
Exact mass: 679.4424
SMILES: CCCCCCCCCCCCCC(=O)OC[C@H](COP(O)(=O)OC[C@H](N)C(O)=O)OC(=O)CCCCCCCCCCCCC
InChI: InChI=1S/C34H66NO10P/c1-3-5-7-9-11-13-15-17-19-21-23-25-32(36)42-27-30(28-43-46(40,41)44-29-31(35)34(38)39)45-33(37)26-24-22-20-18-16-14-12-10-8-6-4-2/h30-31H,3-29,35H2,1-2H3,(H,38,39)(H,40,41)/t30-,31+/m1/s1
Instrument: maXis plus UHR-ToF-MS, Bruker Daltonics
Instrument type: LC-ESI-QTOF
Ms type: MS2
Ion mode: NEGATIVE
Ionization: ESI
Fragmentation mode: CID
Collision energy: 40
Column name: CORTECS UPLC C18 1.6um, 2.1x150mm, Waters
Retention time: 10.357 min
Base peak: 678.4334
Precursor m/z: 678.4352
Precursor type: [M-H]-
m/z	relative intensity
153.006	273
155.0111	1
171.0145	6
227.2049	999
228.2082	118
229.2114	6
363.1927	596
364.1961	75
365.1971	11
381.203	231
382.2055	31
383.2075	2
591.4008	121
592.4042	26
593.4073	5
678.431	2
