Mass spectrum: PA(16:0/22:6(4Z,7Z,10Z,13Z,16Z,19Z)); LC-ESI-QTOF; MS2; CE: 10; R=; [M-H]-
Name: PA(16:0/22:6(4Z,7Z,10Z,13Z,16Z,19Z))
Formula: C41H69O8P
Exact mass: 720.4730
SMILES: CCCCCCCCCCCCCCCC(=O)OC[C@H](COP(O)(O)=O)OC(=O)CC\C=C/C\C=C/C\C=C/C\C=C/C\C=C/C\C=C/CC
InChI: InChI=1S/C41H69O8P/c1-3-5-7-9-11-13-15-17-18-19-20-21-22-24-26-28-30-32-34-36-41(43)49-39(38-48-50(44,45)46)37-47-40(42)35-33-31-29-27-25-23-16-14-12-10-8-6-4-2/h5,7,11,13,17-18,20-21,24,26,30,32,39H,3-4,6,8-10,12,14-16,19,22-23,25,27-29,31,33-38H2,1-2H3,(H2,44,45,46)/b7-5-,13-11-,18-17-,21-20-,26-24-,32-30-/t39-/m1/s1
Instrument: maXis plus UHR-ToF-MS, Bruker Daltonics
Instrument type: LC-ESI-QTOF
Ms type: MS2
Ion mode: NEGATIVE
Ionization: ESI
Fragmentation mode: CID
Collision energy: 10
Column name: CORTECS UPLC C18 1.6um, 2.1x150mm, Waters
Retention time: 12.396 min
Base peak: 719.4629
Precursor m/z: 719.4657
Precursor type: [M-H]-
m/z	relative intensity
283.2475	2
391.2217	14
463.2209	2
477.9752	3
498.2896	1
569.0629	3
593.1206	3
633.3143	2
719.4624	999
