Mass spectrum: PE(16:0/16:0); LC-ESI-QTOF; MS2; CE: 20; R=; [M-H]-
Name: PE(16:0/16:0)
Formula: C37H74NO8P
Exact mass: 691.5152
SMILES: [H][C@@](COC(=O)CCCCCCCCCCCCCCC)(COP(O)(=O)OCCN)OC(=O)CCCCCCCCCCCCCCC
InChI: InChI=1S/C37H74NO8P/c1-3-5-7-9-11-13-15-17-19-21-23-25-27-29-36(39)43-33-35(34-45-47(41,42)44-32-31-38)46-37(40)30-28-26-24-22-20-18-16-14-12-10-8-6-4-2/h35H,3-34,38H2,1-2H3,(H,41,42)/t35-/m1/s1
Instrument: maXis plus UHR-ToF-MS, Bruker Daltonics
Instrument type: LC-ESI-QTOF
Ms type: MS2
Ion mode: NEGATIVE
Ionization: ESI
Fragmentation mode: CID
Collision energy: 20
Column name: CORTECS UPLC C18 1.6um, 2.1x150mm, Waters
Retention time: 14.439 min
Base peak: 146.9653
Precursor m/z: 690.5079
Precursor type: [M-H]-
m/z	relative intensity
139.0069	9
141.0528	7
196.0368	19
255.1317	8
255.2327	174
256.2367	22
279.0684	19
378.2337	9
383.3459	13
387.2721	12
435.2613	8
452.2027	20
452.2704	17
470.9702	8
508.0248	14
512.1187	7
552.1312	11
590.0768	10
608.4456	10
643.4615	16
690.5026	999
