Mass spectrum: PA(16:0/20:4(5Z,8Z,11Z,14Z)); LC-ESI-QTOF; MS2; CE: 40; R=; [M-H]-
Name: PA(16:0/20:4(5Z,8Z,11Z,14Z))
Formula: C39H69O8P
Exact mass: 696.4730
SMILES: CCCCCCCCCCCCCCCC(=O)OC[C@H](COP(O)(O)=O)OC(=O)CCC\C=C/C\C=C/C\C=C/C\C=C/CCCCC
InChI: InChI=1S/C39H69O8P/c1-3-5-7-9-11-13-15-17-18-19-20-22-24-26-28-30-32-34-39(41)47-37(36-46-48(42,43)44)35-45-38(40)33-31-29-27-25-23-21-16-14-12-10-8-6-4-2/h11,13,17-18,20,22,26,28,37H,3-10,12,14-16,19,21,23-25,27,29-36H2,1-2H3,(H2,42,43,44)/b13-11-,18-17-,22-20-,28-26-/t37-/m1/s1
Instrument: maXis plus UHR-ToF-MS, Bruker Daltonics
Instrument type: LC-ESI-QTOF
Ms type: MS2
Ion mode: NEGATIVE
Ionization: ESI
Fragmentation mode: CID
Collision energy: 40
Column name: CORTECS UPLC C18 1.6um, 2.1x150mm, Waters
Retention time: 12.806 min
Base peak: 695.4626
Precursor m/z: 695.4657
Precursor type: [M-H]-
m/z	relative intensity
105.4456	3
134.9848	3
151.9674	2
152.9956	375
153.9968	8
171.0049	4
177.0896	1
188.9898	2
205.1974	6
206.9924	2
218.3233	2
223.9843	2
233.097	2
243.122	1
255.2323	999
256.2359	147
257.2403	4
259.242	26
260.2504	2
262.2262	1
285.2177	1
303.2312	298
304.2366	49
305.232	2
306.261	2
313.1434	1
315.1863	2
335.2731	1
354.0805	2
374.0226	2
391.2238	208
392.228	24
393.2279	6
393.2727	2
409.2329	121
410.0579	1
410.0905	1
410.237	13
410.2789	1
439.2209	21
440.2223	3
445.2537	2
454.1582	1
456.1512	1
457.2312	19
458.2307	2
458.2935	1
459.241	2
570.4781	2
602.3553	1
627.3248	2
693.4474	2
