Mass spectrum: PE(15:0/15:0); LC-ESI-QTOF; MS2; CE: 40; R=; [M-H]-
Name: PE(15:0/15:0)
Formula: C35H70NO8P
Exact mass: 663.4839
SMILES: [C@](COC(=O)CCCCCCCCCCCCCC)(OC(=O)CCCCCCCCCCCCCC)([H])COP(OCCN)(O)=O
InChI: InChI=1S/C35H70NO8P/c1-3-5-7-9-11-13-15-17-19-21-23-25-27-34(37)41-31-33(32-43-45(39,40)42-30-29-36)44-35(38)28-26-24-22-20-18-16-14-12-10-8-6-4-2/h33H,3-32,36H2,1-2H3,(H,39,40)/t33-/m1/s1
Instrument: maXis plus UHR-ToF-MS, Bruker Daltonics
Instrument type: LC-ESI-QTOF
Ms type: MS2
Ion mode: NEGATIVE
Ionization: ESI
Fragmentation mode: CID
Collision energy: 40
Column name: CORTECS UPLC C18 1.6um, 2.1x150mm, Waters
Retention time: 13.252 min
Base peak: 662.4735
Precursor m/z: 662.4766
Precursor type: [M-H]-
m/z	relative intensity
140.0116	14
196.0377	15
198.0398	1
241.2173	999
242.2203	132
243.2234	8
364.2273	1
420.2503	7
421.2543	2
438.2602	29
439.2633	6
662.476	8
