Mass spectrum: PS(16:0/22:6(4Z,7Z,10Z,13Z,16Z,19Z)); LC-ESI-QTOF; MS2; CE: 40; R=; [M-H]-
Name: PS(16:0/22:6(4Z,7Z,10Z,13Z,16Z,19Z))
Formula: C44H74NO10P
Exact mass: 807.5050
SMILES: CCCCCCCCCCCCCCCC(=O)OC[C@H](COP(O)(=O)OC[C@H](N)C(O)=O)OC(=O)CC\C=C/C\C=C/C\C=C/C\C=C/C\C=C/C\C=C/CC
InChI: InChI=1S/C44H74NO10P/c1-3-5-7-9-11-13-15-17-18-19-20-21-22-24-26-28-30-32-34-36-43(47)55-40(38-53-56(50,51)54-39-41(45)44(48)49)37-52-42(46)35-33-31-29-27-25-23-16-14-12-10-8-6-4-2/h5,7,11,13,17-18,20-21,24,26,30,32,40-41H,3-4,6,8-10,12,14-16,19,22-23,25,27-29,31,33-39,45H2,1-2H3,(H,48,49)(H,50,51)/b7-5-,13-11-,18-17-,21-20-,26-24-,32-30-/t40-,41+/m1/s1
Instrument: maXis plus UHR-ToF-MS, Bruker Daltonics
Instrument type: LC-ESI-QTOF
Ms type: MS2
Ion mode: NEGATIVE
Ionization: ESI
Fragmentation mode: CID
Collision energy: 40
Column name: CORTECS UPLC C18 1.6um, 2.1x150mm, Waters
Retention time: 11.629 min
Base peak: 806.4965
Precursor m/z: 806.4978
Precursor type: [M-H]-
m/z	relative intensity
149.1416	1
150.9894	1
153.0062	228
154.2865	1
171.0149	7
182.948	1
201.0036	1
229.1988	4
230.2	1
251.2894	1
253.5696	1
255.2344	658
256.2374	72
257.2383	4
258.2393	2
283.242	25
284.246	4
302.241	1
327.232	199
328.2336	29
329.242	2
335.2019	1
372.3582	1
391.2234	999
392.2263	135
393.2291	13
393.2972	1
403.4648	1
409.2331	365
410.2365	41
411.2438	4
463.2229	112
464.2256	35
464.2609	2
465.2245	1
481.2348	32
482.2354	6
483.2371	1
496.269	1
496.303	1
655.5225	1
718.3345	1
719.4625	217
720.4637	82
721.4686	13
722.4715	1
806.4958	11
