Mass spectrum: PA(16:0/18:1(9Z)); LC-ESI-QTOF; MS2; CE: 40; R=; [M-H]-
Name: PA(16:0/18:1(9Z))
Formula: C37H71O8P
Exact mass: 674.4887
SMILES: [H][C@@](COC(=O)CCCCCCCCCCCCCCC)(COP(O)(O)=O)OC(=O)CCCCCCC\C=C/CCCCCCCC
InChI: InChI=1S/C37H71O8P/c1-3-5-7-9-11-13-15-17-18-20-22-24-26-28-30-32-37(39)45-35(34-44-46(40,41)42)33-43-36(38)31-29-27-25-23-21-19-16-14-12-10-8-6-4-2/h17-18,35H,3-16,19-34H2,1-2H3,(H2,40,41,42)/b18-17-/t35-/m1/s1
Instrument: maXis plus UHR-ToF-MS, Bruker Daltonics
Instrument type: LC-ESI-QTOF
Ms type: MS2
Ion mode: NEGATIVE
Ionization: ESI
Fragmentation mode: CID
Collision energy: 40
Column name: CORTECS UPLC C18 1.6um, 2.1x150mm, Waters
Retention time: 14.012 min
Base peak: 673.479
Precursor m/z: 673.4814
Precursor type: [M-H]-
m/z	relative intensity
134.9851	4
145.052	1
152.9962	406
154.9998	1
171.0071	12
180.0953	1
194.3966	1
255.2327	999
257.2386	5
263.127	1
274.2492	1
281.2481	526
282.2508	80
391.2236	164
392.2263	30
393.2274	4
407.0954	1
409.2338	115
410.2376	20
411.2384	6
411.2946	1
417.2391	56
418.2484	8
419.2419	1
435.251	29
436.2506	11
673.4759	14
