Mass spectrum: PG(16:0/20:4(5Z,8Z,11Z,14Z)); LC-ESI-QTOF; MS2; CE: 40; R=; [M-H]-
Name: PG(16:0/20:4(5Z,8Z,11Z,14Z))
Formula: C42H75O10P
Exact mass: 770.5098
SMILES: CCCCCCCCCCCCCCCC(=O)OC[C@H](COP(O)(=O)OC[C@@H](O)CO)OC(=O)CCC\C=C/C\C=C/C\C=C/C\C=C/CCCCC
InChI: InChI=1S/C42H75O10P/c1-3-5-7-9-11-13-15-17-18-19-20-22-24-26-28-30-32-34-42(46)52-40(38-51-53(47,48)50-36-39(44)35-43)37-49-41(45)33-31-29-27-25-23-21-16-14-12-10-8-6-4-2/h11,13,17-18,20,22,26,28,39-40,43-44H,3-10,12,14-16,19,21,23-25,27,29-38H2,1-2H3,(H,47,48)/b13-11-,18-17-,22-20-,28-26-/t39-,40+/m0/s1
Instrument: maXis plus UHR-ToF-MS, Bruker Daltonics
Instrument type: LC-ESI-QTOF
Ms type: MS2
Ion mode: NEGATIVE
Ionization: ESI
Fragmentation mode: CID
Collision energy: 40
Column name: CORTECS UPLC C18 1.6um, 2.1x150mm, Waters
Retention time: 12.136 min
Base peak: 769.5008
Precursor m/z: 769.5025
Precursor type: [M-H]-
m/z	relative intensity
171.0141	18
177.0986	1
205.2008	10
206.203	1
227.0358	10
255.2346	308
256.2377	32
257.2407	1
259.244	49
260.2479	4
285.2209	3
303.2326	999
304.2357	154
305.2387	9
391.2231	19
392.2242	4
409.2311	1
439.2203	4
440.2225	1
465.2583	21
466.2612	3
483.2701	54
484.274	9
485.2757	1
513.2587	8
514.2595	1
531.2675	3
695.4687	1
769.4996	120
