Mass spectrum: PA(18:0/18:0); LC-ESI-QTOF; MS2; CE: 20; R=; [M-H]-
Name: PA(18:0/18:0)
Formula: C39H77O8P
Exact mass: 704.5356
SMILES: CCCCCCCCCCCCCCCCCC(=O)OC[C@H](COP(O)(O)=O)OC(=O)CCCCCCCCCCCCCCCCC
InChI: InChI=1S/C39H77O8P/c1-3-5-7-9-11-13-15-17-19-21-23-25-27-29-31-33-38(40)45-35-37(36-46-48(42,43)44)47-39(41)34-32-30-28-26-24-22-20-18-16-14-12-10-8-6-4-2/h37H,3-36H2,1-2H3,(H2,42,43,44)/t37-/m1/s1
Instrument: maXis plus UHR-ToF-MS, Bruker Daltonics
Instrument type: LC-ESI-QTOF
Ms type: MS2
Ion mode: NEGATIVE
Ionization: ESI
Fragmentation mode: CID
Collision energy: 20
Column name: CORTECS UPLC C18 1.6um, 2.1x150mm, Waters
Retention time: 16.259 min
Base peak: 703.523
Precursor m/z: 703.5283
Precursor type: [M-H]-
m/z	relative intensity
185.3837	13
283.2607	26
419.2557	158
420.262	42
421.2565	11
437.2645	44
438.2733	15
467.3394	8
488.1036	14
503.1925	13
630.1847	8
703.5245	999
