Mass spectrum: PA(16:0/18:1(9Z)); LC-ESI-QTOF; MS2; CE: 10; R=; [M-H]-
Name: PA(16:0/18:1(9Z))
Formula: C37H71O8P
Exact mass: 674.4887
SMILES: [H][C@@](COC(=O)CCCCCCCCCCCCCCC)(COP(O)(O)=O)OC(=O)CCCCCCC\C=C/CCCCCCCC
InChI: InChI=1S/C37H71O8P/c1-3-5-7-9-11-13-15-17-18-20-22-24-26-28-30-32-37(39)45-35(34-44-46(40,41)42)33-43-36(38)31-29-27-25-23-21-19-16-14-12-10-8-6-4-2/h17-18,35H,3-16,19-34H2,1-2H3,(H2,40,41,42)/b18-17-/t35-/m1/s1
Instrument: maXis plus UHR-ToF-MS, Bruker Daltonics
Instrument type: LC-ESI-QTOF
Ms type: MS2
Ion mode: NEGATIVE
Ionization: ESI
Fragmentation mode: CID
Collision energy: 10
Column name: CORTECS UPLC C18 1.6um, 2.1x150mm, Waters
Retention time: 14.012 min
Base peak: 673.479
Precursor m/z: 673.4814
Precursor type: [M-H]-
m/z	relative intensity
139.0048	1
281.2442	1
391.2166	2
392.2374	1
409.2373	2
417.2423	1
435.2515	1
673.4785	999
