Mass spectrum: PE(16:0/22:6(4Z,7Z,10Z,13Z,16Z,19Z)); LC-ESI-QTOF; MS2; CE: 40; R=; [M-H]-
Name: PE(16:0/22:6(4Z,7Z,10Z,13Z,16Z,19Z))
Formula: C43H74NO8P
Exact mass: 763.5152
SMILES: CCCCCCCCCCCCCCCC(=O)OC[C@H](COP(O)(=O)OCCN)OC(=O)CC\C=C/C\C=C/C\C=C/C\C=C/C\C=C/C\C=C/CC
InChI: InChI=1S/C43H74NO8P/c1-3-5-7-9-11-13-15-17-18-19-20-21-22-24-26-28-30-32-34-36-43(46)52-41(40-51-53(47,48)50-38-37-44)39-49-42(45)35-33-31-29-27-25-23-16-14-12-10-8-6-4-2/h5,7,11,13,17-18,20-21,24,26,30,32,41H,3-4,6,8-10,12,14-16,19,22-23,25,27-29,31,33-40,44H2,1-2H3,(H,47,48)/b7-5-,13-11-,18-17-,21-20-,26-24-,32-30-/t41-/m1/s1
Instrument: maXis plus UHR-ToF-MS, Bruker Daltonics
Instrument type: LC-ESI-QTOF
Ms type: MS2
Ion mode: NEGATIVE
Ionization: ESI
Fragmentation mode: CID
Collision energy: 40
Column name: CORTECS UPLC C18 1.6um, 2.1x150mm, Waters
Retention time: 12.931 min
Base peak: 762.504
Precursor m/z: 762.5079
Precursor type: [M-H]-
m/z	relative intensity
117.0706	1
121.1012	3
121.9999	2
131.086	3
133.1019	3
134.9841	3
135.1164	3
137.132	2
140.0123	29
141.0189	1
147.1171	5
149.0459	1
149.0614	2
149.0948	1
149.1328	8
153.0904	1
158.1069	1
163.1472	4
171.1198	1
177.1646	17
178.0234	1
181.1254	1
187.144	3
189.164	7
190.1661	1
191.1803	8
192.1807	1
195.1386	1
196.0377	43
197.0415	2
198.0462	1
199.1463	2
201.1699	1
203.1818	4
204.1209	2
204.1819	3
205.1573	1
206.1253	1
213.1613	1
214.0464	1
217.1961	4
225.0583	1
229.1968	64
230.1994	11
231.1346	1
231.3149	1
240.5296	1
241.1936	2
242.2308	2
243.1363	2
249.1848	14
255.2327	661
256.2354	86
257.2415	4
258.1313	1
258.2403	1
267.2114	2
268.2071	1
281.2225	1
282.4305	1
283.2423	356
284.2472	55
285.2538	6
285.5104	1
286.4967	1
291.2093	2
297.2207	10
309.216	3
310.2248	1
315.2315	2
325.2133	1
326.5672	1
327.2322	999
328.2353	157
329.2401	10
329.5237	1
337.2766	1
378.2504	2
409.2303	1
420.3613	1
434.2645	32
435.2677	10
435.383	1
450.2347	2
452.2749	144
453.2785	18
453.3119	1
453.3461	2
454.2835	1
454.3067	2
456.0827	1
466.0331	1
493.9997	1
506.2615	8
506.3272	1
524.2758	3
561.4628	1
702.499	1
762.5042	30
