Mass spectrum: PA(16:0/16:0); LC-ESI-QTOF; MS2; CE: 20; R=; [M-H]-
Name: PA(16:0/16:0)
Formula: C35H69O8P
Exact mass: 648.4730
SMILES: CCCCCCCCCCCCCCCC(=O)OC[C@H](COP(O)(O)=O)OC(=O)CCCCCCCCCCCCCCC
InChI: InChI=1S/C35H69O8P/c1-3-5-7-9-11-13-15-17-19-21-23-25-27-29-34(36)41-31-33(32-42-44(38,39)40)43-35(37)30-28-26-24-22-20-18-16-14-12-10-8-6-4-2/h33H,3-32H2,1-2H3,(H2,38,39,40)/t33-/m1/s1
Instrument: maXis plus UHR-ToF-MS, Bruker Daltonics
Instrument type: LC-ESI-QTOF
Ms type: MS2
Ion mode: NEGATIVE
Ionization: ESI
Fragmentation mode: CID
Collision energy: 20
Column name: CORTECS UPLC C18 1.6um, 2.1x150mm, Waters
Retention time: 14.013 min
Base peak: 647.4633
Precursor m/z: 647.4657
Precursor type: [M-H]-
m/z	relative intensity
144.012	1
152.9959	15
255.2329	39
256.2345	4
341.1047	1
390.1271	1
391.2239	210
392.2278	31
392.2646	2
393.2374	4
409.2357	42
410.2381	5
411.237	1
476.1648	1
572.3292	1
647.4637	999
