Mass spectrum: PE(16:0/20:4(5Z,8Z,11Z,14Z)); LC-ESI-QTOF; MS2; CE: 20; R=; [M-H]-
Name: PE(16:0/20:4(5Z,8Z,11Z,14Z))
Formula: C41H74NO8P
Exact mass: 739.5152
SMILES: CCCCCCCCCCCCCCCC(=O)OC[C@H](COP(O)(=O)OCCN)OC(=O)CCC\C=C/C\C=C/C\C=C/C\C=C/CCCCC
InChI: InChI=1S/C41H74NO8P/c1-3-5-7-9-11-13-15-17-18-19-20-22-24-26-28-30-32-34-41(44)50-39(38-49-51(45,46)48-36-35-42)37-47-40(43)33-31-29-27-25-23-21-16-14-12-10-8-6-4-2/h11,13,17-18,20,22,26,28,39H,3-10,12,14-16,19,21,23-25,27,29-38,42H2,1-2H3,(H,45,46)/b13-11-,18-17-,22-20-,28-26-/t39-/m1/s1
Instrument: maXis plus UHR-ToF-MS, Bruker Daltonics
Instrument type: LC-ESI-QTOF
Ms type: MS2
Ion mode: NEGATIVE
Ionization: ESI
Fragmentation mode: CID
Collision energy: 20
Column name: CORTECS UPLC C18 1.6um, 2.1x150mm, Waters
Retention time: 13.341 min
Base peak: 738.5042
Precursor m/z: 738.5079
Precursor type: [M-H]-
m/z	relative intensity
140.0133	1
196.0377	1
255.231	38
256.2372	1
259.2392	3
285.2274	1
303.2316	134
304.2369	19
306.1428	1
319.4722	1
434.2641	1
452.275	12
453.2769	1
454.2734	1
456.1277	1
482.2622	1
483.2696	1
581.0049	2
581.3372	2
622.4668	1
738.5034	999
