Mass spectrum: PE(18:0/22:6(4Z,7Z,10Z,13Z,16Z,19Z)); LC-ESI-QTOF; MS2; CE: 20; R=; [M-H]-
Name: PE(18:0/22:6(4Z,7Z,10Z,13Z,16Z,19Z))
Formula: C45H78NO8P
Exact mass: 791.5465
SMILES: CCCCCCCCCCCCCCCCCC(=O)OC[C@H](COP(O)(=O)OCCN)OC(=O)CC\C=C/C\C=C/C\C=C/C\C=C/C\C=C/C\C=C/CC
InChI: InChI=1S/C45H78NO8P/c1-3-5-7-9-11-13-15-17-19-20-21-22-24-26-28-30-32-34-36-38-45(48)54-43(42-53-55(49,50)52-40-39-46)41-51-44(47)37-35-33-31-29-27-25-23-18-16-14-12-10-8-6-4-2/h5,7,11,13,17,19,21-22,26,28,32,34,43H,3-4,6,8-10,12,14-16,18,20,23-25,27,29-31,33,35-42,46H2,1-2H3,(H,49,50)/b7-5-,13-11-,19-17-,22-21-,28-26-,34-32-/t43-/m1/s1
Instrument: maXis plus UHR-ToF-MS, Bruker Daltonics
Instrument type: LC-ESI-QTOF
Ms type: MS2
Ion mode: NEGATIVE
Ionization: ESI
Fragmentation mode: CID
Collision energy: 20
Column name: CORTECS UPLC C18 1.6um, 2.1x150mm, Waters
Retention time: 14.109 min
Base peak: 790.5361
Precursor m/z: 790.5392
Precursor type: [M-H]-
m/z	relative intensity
226.3473	2
229.1957	3
283.2417	4
283.2634	22
284.2476	5
284.2687	6
292.9732	2
327.2304	112
328.2381	18
329.2395	2
332.1718	1
351.2557	3
463.2998	2
480.3118	12
481.3036	2
506.2584	3
524.2718	3
525.2787	2
684.1053	2
790.5344	999
