Mass spectrum: PE(15:0/15:0); LC-ESI-QTOF; MS2; CE: 20; R=; [M-H]-
Name: PE(15:0/15:0)
Formula: C35H70NO8P
Exact mass: 663.4839
SMILES: [C@](COC(=O)CCCCCCCCCCCCCC)(OC(=O)CCCCCCCCCCCCCC)([H])COP(OCCN)(O)=O
InChI: InChI=1S/C35H70NO8P/c1-3-5-7-9-11-13-15-17-19-21-23-25-27-34(37)41-31-33(32-43-45(39,40)42-30-29-36)44-35(38)28-26-24-22-20-18-16-14-12-10-8-6-4-2/h33H,3-32,36H2,1-2H3,(H,39,40)/t33-/m1/s1
Instrument: maXis plus UHR-ToF-MS, Bruker Daltonics
Instrument type: LC-ESI-QTOF
Ms type: MS2
Ion mode: NEGATIVE
Ionization: ESI
Fragmentation mode: CID
Collision energy: 20
Column name: CORTECS UPLC C18 1.6um, 2.1x150mm, Waters
Retention time: 13.252 min
Base peak: 662.4735
Precursor m/z: 662.4766
Precursor type: [M-H]-
m/z	relative intensity
140.014	1
196.0375	1
241.2169	194
242.2218	23
243.2278	1
420.2486	5
428.1912	1
438.2594	13
439.2621	4
440.2675	1
662.4731	999
