Mass spectrum: PE(18:0/18:2(9Z,12Z)); LC-ESI-QTOF; MS2; CE: 20; R=; [M+H]+
Name: PE(18:0/18:2(9Z,12Z))
Formula: C41H78NO8P
Exact mass: 743.5465
SMILES: C(CCCCCCCCCC)CCCCCCC(=O)OC[C@H](COP(=O)(OCCN)O)OC(=O)CCCCCCC/C=C\C/C=C\CCCCC
InChI: InChI=1S/C41H78NO8P/c1-3-5-7-9-11-13-15-17-19-21-23-25-27-29-31-33-40(43)47-37-39(38-49-51(45,46)48-36-35-42)50-41(44)34-32-30-28-26-24-22-20-18-16-14-12-10-8-6-4-2/h12,14,18,20,39H,3-11,13,15-17,19,21-38,42H2,1-2H3,(H,45,46)/b14-12-,20-18-/t39-/m1/s1
Instrument: maXis plus UHR-ToF-MS, Bruker Daltonics
Instrument type: LC-ESI-QTOF
Ms type: MS2
Ion mode: POSITIVE
Ionization: ESI
Fragmentation mode: CID
Collision energy: 20
Column name: CORTECS UPLC C18 1.6um, 2.1x150mm, Waters
Retention time: 14.758 min
Base peak: 744.553
Precursor m/z: 744.5538
Precursor type: [M+H]+
m/z	relative intensity
95.0867	1
97.1025	1
263.2371	1
306.2799	2
310.3076	2
319.2654	1
337.2716	4
341.3044	2
416.2436	1
446.3029	1
460.2804	4
461.2816	1
464.3129	3
465.3098	1
478.2923	2
482.3262	6
491.3467	1
527.5233	1
530.4147	1
556.5795	1
581.1086	1
588.24	1
597.1414	1
602.2467	1
602.2947	1
602.3517	1
602.407	1
602.5417	1
602.6033	1
602.9308	1
603.5348	999
604.5377	336
605.0739	1
605.4615	1
605.5408	28
606.3802	1
606.5436	2
744.5538	605
