Mass spectrum: PE(18:0/18:1(9Z)); LC-ESI-QTOF; MS2; CE: 40; R=; [M+Na]+
Name: PE(18:0/18:1(9Z))
Formula: C41H80NO8P
Exact mass: 745.5622
SMILES: [H][C@@](COC(=O)CCCCCCCCCCCCCCCCC)(COP(O)(=O)OCCN)OC(=O)CCCCCCC\C=C/CCCCCCCC
InChI: InChI=1S/C41H80NO8P/c1-3-5-7-9-11-13-15-17-19-21-23-25-27-29-31-33-40(43)47-37-39(38-49-51(45,46)48-36-35-42)50-41(44)34-32-30-28-26-24-22-20-18-16-14-12-10-8-6-4-2/h18,20,39H,3-17,19,21-38,42H2,1-2H3,(H,45,46)/b20-18-/t39-/m1/s1
Instrument: maXis plus UHR-ToF-MS, Bruker Daltonics
Instrument type: LC-ESI-QTOF
Ms type: MS2
Ion mode: POSITIVE
Ionization: ESI
Fragmentation mode: CID
Collision energy: 40
Column name: CORTECS UPLC C18 1.6um, 2.1x150mm, Waters
Retention time: 15.481 min
Base peak: 746.5693
Precursor m/z: 768.5514
Precursor type: [M+Na]+
m/z	relative intensity
97.1013	20
97.3908	13
99.1161	15
120.967	377
138.9771	16
145.9965	55
149.0237	36
164.0093	999
182.0169	29
203.1263	19
205.0324	21
371.2393	13
410.2377	14
441.2384	38
443.2553	18
447.3485	21
461.2614	41
469.3321	13
486.3005	21
524.134	14
605.5494	326
606.5551	96
607.556	30
627.5311	490
628.536	151
629.5339	31
725.5094	286
726.5123	78
727.5255	21
768.5531	186
