Mass spectrum: PE(18:0/18:2(9Z,12Z)); LC-ESI-QTOF; MS2; CE: 40; R=; [M+H]+
Name: PE(18:0/18:2(9Z,12Z))
Formula: C41H78NO8P
Exact mass: 743.5465
SMILES: C(CCCCCCCCCC)CCCCCCC(=O)OC[C@H](COP(=O)(OCCN)O)OC(=O)CCCCCCC/C=C\C/C=C\CCCCC
InChI: InChI=1S/C41H78NO8P/c1-3-5-7-9-11-13-15-17-19-21-23-25-27-29-31-33-40(43)47-37-39(38-49-51(45,46)48-36-35-42)50-41(44)34-32-30-28-26-24-22-20-18-16-14-12-10-8-6-4-2/h12,14,18,20,39H,3-11,13,15-17,19,21-38,42H2,1-2H3,(H,45,46)/b14-12-,20-18-/t39-/m1/s1
Instrument: maXis plus UHR-ToF-MS, Bruker Daltonics
Instrument type: LC-ESI-QTOF
Ms type: MS2
Ion mode: POSITIVE
Ionization: ESI
Fragmentation mode: CID
Collision energy: 40
Column name: CORTECS UPLC C18 1.6um, 2.1x150mm, Waters
Retention time: 14.758 min
Base peak: 744.553
Precursor m/z: 744.5538
Precursor type: [M+H]+
m/z	relative intensity
95.0861	117
97.0659	5
97.1019	53
99.0812	5
99.1174	13
100.123	1
101.0605	1
105.0703	4
107.0859	14
109.1015	62
111.0814	2
111.117	23
113.0974	1
113.1325	5
119.0863	3
121.1014	15
123.1166	44
124.0169	2
125.0967	3
125.1328	5
127.1475	1
133.1016	7
135.1174	11
136.119	2
137.1326	20
139.1112	2
139.1481	1
141.1641	2
147.1176	4
148.1189	1
149.1333	9
151.1486	5
152.1528	1
153.1279	3
155.0097	1
155.1806	1
159.1175	1
161.133	8
163.1478	8
165.1259	1
165.1647	3
167.18	1
169.1954	1
175.1486	7
177.1632	2
179.1423	1
186.4556	1
189.1628	3
191.1775	1
193.1952	2
207.1756	1
213.1615	1
230.4593	1
235.1676	1
245.2259	10
246.2305	1
249.1884	1
249.2584	6
263.2364	45
264.2388	4
267.2673	41
268.2716	5
273.2583	1
301.2521	1
306.2791	25
307.2804	5
310.3103	7
311.3147	1
319.2625	10
320.2656	3
323.2915	2
337.274	19
338.2761	2
341.3046	22
342.3074	3
421.2732	2
446.3032	1
464.3164	3
473.6001	1
482.3239	3
531.0324	1
567.1283	1
575.5482	1
601.1022	1
602.2275	1
602.2916	1
602.3765	2
602.4478	1
602.5192	2
602.5895	1
602.9435	1
603.0004	2
603.5345	999
604.5377	297
605.5411	37
606.5416	2
