Mass spectrum: PA(18:0/18:0); LC-ESI-QTOF; MS2; CE: 20; R=; [M+NH4]+
Name: PA(18:0/18:0)
Formula: C39H77O8P
Exact mass: 704.5356
SMILES: CCCCCCCCCCCCCCCCCC(=O)OC[C@H](COP(O)(O)=O)OC(=O)CCCCCCCCCCCCCCCCC
InChI: InChI=1S/C39H77O8P/c1-3-5-7-9-11-13-15-17-19-21-23-25-27-29-31-33-38(40)45-35-37(36-46-48(42,43)44)47-39(41)34-32-30-28-26-24-22-20-18-16-14-12-10-8-6-4-2/h37H,3-36H2,1-2H3,(H2,42,43,44)/t37-/m1/s1
Instrument: maXis plus UHR-ToF-MS, Bruker Daltonics
Instrument type: LC-ESI-QTOF
Ms type: MS2
Ion mode: POSITIVE
Ionization: ESI
Fragmentation mode: CID
Collision energy: 20
Column name: CORTECS UPLC C18 1.6um, 2.1x150mm, Waters
Retention time: 17.990 min
Base peak: 447.346
Precursor m/z: 722.5694
Precursor type: [M+NH4]+
m/z	relative intensity
141.1263	999
142.1299	636
233.1766	377
455.3431	407
483.362	451
511.4011	651
539.429	791
607.5652	421
608.5702	518
