Mass spectrum: PC(18:1(9Z)/18:0); LC-ESI-QTOF; MS2; CE: 40; R=; [M+Na]+
Name: PC(18:1(9Z)/18:0)
Name: 1-Oleoyl-2-stearoyl-sn-glycero-3-phosphocholine
Name: [(2R)-2-octadecanoyloxy-3-[(Z)-octadec-9-enoyl]oxypropyl] 2-(trimethylazaniumyl)ethyl phosphate
Formula: C44H86NO8P
Exact mass: 787.6091
SMILES: CCCCCCCCCCCCCCCCCC(=O)O[C@H](COC(=O)CCCCCCC\C=C/CCCCCCCC)COP([O-])(=O)OCC[N+](C)(C)C
InChI: InChI=1S/C44H86NO8P/c1-6-8-10-12-14-16-18-20-22-24-26-28-30-32-34-36-43(46)50-40-42(41-52-54(48,49)51-39-38-45(3,4)5)53-44(47)37-35-33-31-29-27-25-23-21-19-17-15-13-11-9-7-2/h20,22,42H,6-19,21,23-41H2,1-5H3/b22-20-/t42-/m1/s1
Instrument: maXis plus UHR-ToF-MS, Bruker Daltonics
Instrument type: LC-ESI-QTOF
Ms type: MS2
Ion mode: POSITIVE
Ionization: ESI
Fragmentation mode: CID
Collision energy: 40
Column name: CORTECS UPLC C18 1.6um, 2.1x150mm, Waters
Retention time: 15.337 min
Base peak: 788.6154
Precursor m/z: 810.5983
Precursor type: [M+Na]+
m/z	relative intensity
109.1005	23
111.1165	27
146.9821	999
164.9917	51
184.073	67
207.9666	24
219.03	24
249.4374	24
341.1077	25
469.2676	38
591.4511	26
605.5506	223
606.553	92
607.5562	28
627.5319	689
628.5355	220
628.5798	27
629.5362	40
694.1669	31
751.5239	695
752.5253	183
753.5236	54
810.597	366
