Mass spectrum: PE(16:0/18:1(9Z)); LC-ESI-QTOF; MS2; CE: 40; R=; [M+H]+
Name: PE(16:0/18:1(9Z))
Formula: C39H76NO8P
Exact mass: 717.5309
SMILES: [H][C@@](COC(=O)CCCCCCCCCCCCCCC)(COP(O)(=O)OCCN)OC(=O)CCCCCCC\C=C/CCCCCCCC
InChI: InChI=1S/C39H76NO8P/c1-3-5-7-9-11-13-15-17-18-20-22-24-26-28-30-32-39(42)48-37(36-47-49(43,44)46-34-33-40)35-45-38(41)31-29-27-25-23-21-19-16-14-12-10-8-6-4-2/h17-18,37H,3-16,19-36,40H2,1-2H3,(H,43,44)/b18-17-/t37-/m1/s1
Instrument: maXis plus UHR-ToF-MS, Bruker Daltonics
Instrument type: LC-ESI-QTOF
Ms type: MS2
Ion mode: POSITIVE
Ionization: ESI
Fragmentation mode: CID
Collision energy: 40
Column name: CORTECS UPLC C18 1.6um, 2.1x150mm, Waters
Retention time: 14.534 min
Base peak: 718.5372
Precursor m/z: 718.5381
Precursor type: [M+H]+
m/z	relative intensity
95.0858	148
97.1014	80
99.0803	3
99.1175	18
101.0962	2
107.0854	11
109.1011	75
111.081	3
111.1169	41
113.0963	1
113.1332	3
115.1112	1
121.1013	32
123.1168	45
124.0159	2
124.1216	1
125.096	1
125.1327	12
127.1117	3
127.1478	1
135.1172	29
136.1214	2
137.1328	16
139.1116	2
139.1485	5
141.1261	1
141.1636	1
149.1331	13
150.1366	1
151.1481	8
153.1284	4
155.0107	2
155.1439	1
155.181	2
163.148	5
165.1643	9
167.1431	1
177.1635	2
179.1802	1
205.1946	1
216.0634	1
221.2264	5
239.2368	60
240.2393	10
247.2419	12
248.2449	2
265.2521	69
266.2556	8
282.2782	11
283.2819	1
308.2941	27
309.2971	4
313.2732	19
314.2773	3
315.2823	1
321.278	3
322.2831	1
339.289	22
340.2962	2
393.238	1
418.2725	1
454.295	1
503.4814	1
572.2369	1
576.2924	1
576.3821	1
576.4248	1
576.5038	1
576.5733	1
577.5187	999
578.5219	315
579.5244	37
580.5272	1
