Mass spectrum: PC(16:0/16:0); LC-ESI-QTOF; MS2; CE: 40; R=; [M+Na]+
Name: PC(16:0/16:0)
Name: Colfosceril palmitate
Name: [(2R)-2,3-di(hexadecanoyloxy)propyl] 2-(trimethylazaniumyl)ethyl phosphate
Formula: C40H80NO8P
Exact mass: 733.5622
SMILES: CCCCCCCCCCCCCCCC(=O)OC[C@H](COP([O-])(=O)OCC[N+](C)(C)C)OC(=O)CCCCCCCCCCCCCCC
InChI: InChI=1S/C40H80NO8P/c1-6-8-10-12-14-16-18-20-22-24-26-28-30-32-39(42)46-36-38(37-48-50(44,45)47-35-34-41(3,4)5)49-40(43)33-31-29-27-25-23-21-19-17-15-13-11-9-7-2/h38H,6-37H2,1-5H3/t38-/m1/s1
Instrument: maXis plus UHR-ToF-MS, Bruker Daltonics
Instrument type: LC-ESI-QTOF
Ms type: MS2
Ion mode: POSITIVE
Ionization: ESI
Fragmentation mode: CID
Collision energy: 40
Column name: CORTECS UPLC C18 1.6um, 2.1x150mm, Waters
Retention time: 14.249 min
Base peak: 734.5687
Precursor m/z: 756.5514
Precursor type: [M+Na]+
m/z	relative intensity
95.0862	46
109.1008	19
146.9823	999
148.9866	21
164.9923	65
177.1108	30
184.0746	37
239.237	53
441.2398	45
448.5143	19
478.3362	28
500.3124	29
551.5024	344
552.5051	50
553.5118	26
573.4844	679
574.4896	249
697.4772	330
698.4807	128
699.4885	33
756.5508	254
