Mass spectrum: PS(16:0/20:4(5Z,8Z,11Z,14Z)); LC-ESI-QTOF; MS2; CE: 40; R=; [M+Na]+
Name: PS(16:0/20:4(5Z,8Z,11Z,14Z))
Formula: C42H74NO10P
Exact mass: 783.5050
SMILES: [H][C@](COP(OC[C@@](COC(CCCCCCCCCCCCCCC)=O)(OC(CCC/C=C\C/C=C\C/C=C\C/C=C\CCCCC)=O)[H])(=O)O)(C(O)=O)N
InChI: InChI=1S/C42H74NO10P/c1-3-5-7-9-11-13-15-17-18-19-20-22-24-26-28-30-32-34-41(45)53-38(36-51-54(48,49)52-37-39(43)42(46)47)35-50-40(44)33-31-29-27-25-23-21-16-14-12-10-8-6-4-2/h11,13,17-18,20,22,26,28,38-39H,3-10,12,14-16,19,21,23-25,27,29-37,43H2,1-2H3,(H,46,47)(H,48,49)/b13-11-,18-17-,22-20-,28-26-/t38-,39+/m1/s1
Instrument: maXis plus UHR-ToF-MS, Bruker Daltonics
Instrument type: LC-ESI-QTOF
Ms type: MS2
Ion mode: POSITIVE
Ionization: ESI
Fragmentation mode: CID
Collision energy: 40
Column name: CORTECS UPLC C18 1.6um, 2.1x150mm, Waters
Retention time: 12.060 min
Base peak: 447.3463
Precursor m/z: 806.4943
Precursor type: [M+Na]+
m/z	relative intensity
110.0227	34
115.0753	37
120.9659	115
145.0543	28
149.022	47
205.5009	25
207.9975	999
216.0552	26
313.2727	57
470.3299	31
485.2946	25
599.499	68
621.4846	188
622.4865	24
719.4555	43
806.4962	46
