Mass spectrum: PE(15:0/15:0); LC-ESI-QTOF; MS2; CE: 40; R=; [M+Na]+
Name: PE(15:0/15:0)
Formula: C35H70NO8P
Exact mass: 663.4839
SMILES: [C@](COC(=O)CCCCCCCCCCCCCC)(OC(=O)CCCCCCCCCCCCCC)([H])COP(OCCN)(O)=O
InChI: InChI=1S/C35H70NO8P/c1-3-5-7-9-11-13-15-17-19-21-23-25-27-34(37)41-31-33(32-43-45(39,40)42-30-29-36)44-35(38)28-26-24-22-20-18-16-14-12-10-8-6-4-2/h33H,3-32,36H2,1-2H3,(H,39,40)/t33-/m1/s1
Instrument: maXis plus UHR-ToF-MS, Bruker Daltonics
Instrument type: LC-ESI-QTOF
Ms type: MS2
Ion mode: POSITIVE
Ionization: ESI
Fragmentation mode: CID
Collision energy: 40
Column name: CORTECS UPLC C18 1.6um, 2.1x150mm, Waters
Retention time: 13.325 min
Base peak: 664.4907
Precursor m/z: 686.4731
Precursor type: [M+Na]+
m/z	relative intensity
95.0862	71
109.1021	52
120.9663	656
123.081	19
130.1568	18
137.1299	19
138.9774	53
141.1272	27
145.9978	24
157.4961	27
161.0104	21
164.0082	999
165.0109	26
165.1615	18
225.2194	110
322.1786	20
401.2079	65
489.2753	18
490.0984	18
511.3991	164
512.4004	77
523.4717	555
524.4734	176
539.4335	52
545.4527	476
546.4557	124
547.4614	41
563.4619	28
643.432	128
644.4318	60
686.4766	24
