Mass spectrum: PE(18:0/22:6(4Z,7Z,10Z,13Z,16Z,19Z)); LC-ESI-QTOF; MS2; CE: 20; R=; [M+H]+
Name: PE(18:0/22:6(4Z,7Z,10Z,13Z,16Z,19Z))
Formula: C45H78NO8P
Exact mass: 791.5465
SMILES: CCCCCCCCCCCCCCCCCC(=O)OC[C@H](COP(O)(=O)OCCN)OC(=O)CC\C=C/C\C=C/C\C=C/C\C=C/C\C=C/C\C=C/CC
InChI: InChI=1S/C45H78NO8P/c1-3-5-7-9-11-13-15-17-19-20-21-22-24-26-28-30-32-34-36-38-45(48)54-43(42-53-55(49,50)52-40-39-46)41-51-44(47)37-35-33-31-29-27-25-23-18-16-14-12-10-8-6-4-2/h5,7,11,13,17,19,21-22,26,28,32,34,43H,3-4,6,8-10,12,14-16,18,20,23-25,27,29-31,33,35-42,46H2,1-2H3,(H,49,50)/b7-5-,13-11-,19-17-,22-21-,28-26-,34-32-/t43-/m1/s1
Instrument: maXis plus UHR-ToF-MS, Bruker Daltonics
Instrument type: LC-ESI-QTOF
Ms type: MS2
Ion mode: POSITIVE
Ionization: ESI
Fragmentation mode: CID
Collision energy: 20
Column name: CORTECS UPLC C18 1.6um, 2.1x150mm, Waters
Retention time: 14.160 min
Base peak: 792.5522
Precursor m/z: 792.5538
Precursor type: [M+H]+
m/z	relative intensity
95.0861	3
125.1299	1
133.1002	2
175.1481	1
232.2943	1
254.9787	1
341.3042	4
354.28	5
355.2821	1
385.2711	6
419.2483	1
446.2989	4
447.3038	1
452.2454	1
464.3156	8
482.3232	3
483.3231	1
508.284	2
526.2927	3
532.2258	1
539.0521	1
605.5885	1
613.226	1
613.2714	1
615.4291	1
640.2391	1
649.3671	1
650.1304	1
650.2117	1
650.3927	2
650.4604	2
650.9672	1
651.5337	842
652.537	309
653.2227	2
653.5412	43
654.1432	1
654.5404	5
792.5526	999
