Mass spectrum: PS(16:0/18:1(9Z)); LC-ESI-QTOF; MS2; CE: 40; R=; [M+Na]+
Name: PS(16:0/18:1(9Z))
Formula: C40H76NO10P
Exact mass: 761.5207
SMILES: [H][C@](N)(COP(O)(=O)OC[C@@]([H])(COC(=O)CCCCCCCCCCCCCCC)OC(=O)CCCCCCC\C=C/CCCCCCCC)C(O)=O
InChI: InChI=1S/C40H76NO10P/c1-3-5-7-9-11-13-15-17-18-20-22-24-26-28-30-32-39(43)51-36(34-49-52(46,47)50-35-37(41)40(44)45)33-48-38(42)31-29-27-25-23-21-19-16-14-12-10-8-6-4-2/h17-18,36-37H,3-16,19-35,41H2,1-2H3,(H,44,45)(H,46,47)/b18-17-/t36-,37+/m1/s1
Instrument: maXis plus UHR-ToF-MS, Bruker Daltonics
Instrument type: LC-ESI-QTOF
Ms type: MS2
Ion mode: POSITIVE
Ionization: ESI
Fragmentation mode: CID
Collision energy: 40
Column name: CORTECS UPLC C18 1.6um, 2.1x150mm, Waters
Retention time: 13.304 min
Base peak: 447.3467
Precursor m/z: 784.5099
Precursor type: [M+Na]+
m/z	relative intensity
110.0211	30
120.9668	61
125.132	14
133.0857	34
138.978	15
140.067	11
143.4374	11
149.024	49
167.2819	11
172.9648	12
175.1503	13
176.2196	11
192.2634	13
207.9975	999
208.9998	15
469.3285	39
502.2482	14
551.1959	12
577.519	151
578.5249	45
599.4969	42
600.5074	33
697.4794	25
698.486	12
784.5143	34
