Mass spectrum: PS(14:0/14:0); LC-ESI-QTOF; MS2; CE: 40; R=; [M+Na]+
Name: PS(14:0/14:0)
Formula: C34H66NO10P
Exact mass: 679.4424
SMILES: CCCCCCCCCCCCCC(=O)OC[C@H](COP(O)(=O)OC[C@H](N)C(O)=O)OC(=O)CCCCCCCCCCCCC
InChI: InChI=1S/C34H66NO10P/c1-3-5-7-9-11-13-15-17-19-21-23-25-32(36)42-27-30(28-43-46(40,41)44-29-31(35)34(38)39)45-33(37)26-24-22-20-18-16-14-12-10-8-6-4-2/h30-31H,3-29,35H2,1-2H3,(H,38,39)(H,40,41)/t30-,31+/m1/s1
Instrument: maXis plus UHR-ToF-MS, Bruker Daltonics
Instrument type: LC-ESI-QTOF
Ms type: MS2
Ion mode: POSITIVE
Ionization: ESI
Fragmentation mode: CID
Collision energy: 40
Column name: CORTECS UPLC C18 1.6um, 2.1x150mm, Waters
Retention time: 10.398 min
Base peak: 680.449
Precursor m/z: 702.4317
Precursor type: [M+Na]+
m/z	relative intensity
95.0866	37
99.1165	25
120.9662	159
133.0824	33
207.9971	999
209.0011	28
211.2054	26
387.1896	34
456.3517	25
466.3195	28
495.4413	185
496.4452	79
515.3914	25
517.424	58
