Mass spectrum: PC(16:0/18:1(9Z)); LC-ESI-QTOF; MS2; CE: 40; R=; [M+Na]+
Name: PC(16:0/18:1(9Z))
Name: 1-Palmitoyl-2-oleoyl-sn-glycero-3-phosphocholine
Name: [(2R)-3-hexadecanoyloxy-2-[(Z)-octadec-9-enoyl]oxypropyl] 2-(trimethylazaniumyl)ethyl phosphate
Formula: C42H82NO8P
Exact mass: 759.5778
SMILES: C(OP(=O)(OCC[N+](C)(C)C)[O-])[C@@H](COC(CCCCCCCCCCCCCCC)=O)OC(CCCCCCC/C=C\CCCCCCCC)=O
InChI: InChI=1S/C42H82NO8P/c1-6-8-10-12-14-16-18-20-21-23-25-27-29-31-33-35-42(45)51-40(39-50-52(46,47)49-37-36-43(3,4)5)38-48-41(44)34-32-30-28-26-24-22-19-17-15-13-11-9-7-2/h20-21,40H,6-19,22-39H2,1-5H3/b21-20-/t40-/m1/s1
Instrument: maXis plus UHR-ToF-MS, Bruker Daltonics
Instrument type: LC-ESI-QTOF
Ms type: MS2
Ion mode: POSITIVE
Ionization: ESI
Fragmentation mode: CID
Collision energy: 40
Column name: CORTECS UPLC C18 1.6um, 2.1x150mm, Waters
Retention time: 14.273 min
Base peak: 760.5847
Precursor m/z: 782.567
Precursor type: [M+Na]+
m/z	relative intensity
146.9823	999
147.9877	26
164.9944	47
184.0718	63
273.4133	23
441.2428	31
467.2534	43
478.3293	23
504.3536	33
577.5203	300
578.5177	57
599.501	863
600.5026	201
601.506	45
723.4922	516
724.4965	195
725.4951	42
782.566	382
