Mass spectrum: PG(15:0/15:0); LC-ESI-QTOF; MS2; CE: 20; R=; [M+Na]+
Name: PG(15:0/15:0)
Formula: C36H71O10P
Exact mass: 694.4785
SMILES: CCCCCCCCCCCCCCC(=O)OC[C@H](COP(O)(=O)OC[C@@H](O)CO)OC(=O)CCCCCCCCCCCCCC
InChI: InChI=1S/C36H71O10P/c1-3-5-7-9-11-13-15-17-19-21-23-25-27-35(39)43-31-34(32-45-47(41,42)44-30-33(38)29-37)46-36(40)28-26-24-22-20-18-16-14-12-10-8-6-4-2/h33-34,37-38H,3-32H2,1-2H3,(H,41,42)/t33-,34+/m0/s1
Instrument: maXis plus UHR-ToF-MS, Bruker Daltonics
Instrument type: LC-ESI-QTOF
Ms type: MS2
Ion mode: POSITIVE
Ionization: ESI
Fragmentation mode: CID
Collision energy: 20
Column name: CORTECS UPLC C18 1.6um, 2.1x150mm, Waters
Retention time: 12.049 min
Base peak: 447.3464
Precursor m/z: 717.4677
Precursor type: [M+Na]+
m/z	relative intensity
195.0022	86
270.3153	51
376.0487	18
386.1668	15
409.3224	15
448.3481	15
523.4709	24
524.4753	101
525.4778	93
526.4786	105
717.4669	999
