Mass spectrum: PE(18:0/20:4(5Z,8Z,11Z,14Z)); LC-ESI-QTOF; MS2; CE: 40; R=; [M+H]+
Name: PE(18:0/20:4(5Z,8Z,11Z,14Z))
Formula: C43H78NO8P
Exact mass: 767.5465
SMILES: CCCCCCCCCCCCCCCCCC(=O)OC[C@H](COP(O)(=O)OCCN)OC(=O)CCC\C=C/C\C=C/C\C=C/C\C=C/CCCCC
InChI: InChI=1S/C43H78NO8P/c1-3-5-7-9-11-13-15-17-19-20-22-24-26-28-30-32-34-36-43(46)52-41(40-51-53(47,48)50-38-37-44)39-49-42(45)35-33-31-29-27-25-23-21-18-16-14-12-10-8-6-4-2/h11,13,17,19,22,24,28,30,41H,3-10,12,14-16,18,20-21,23,25-27,29,31-40,44H2,1-2H3,(H,47,48)/b13-11-,19-17-,24-22-,30-28-/t41-/m1/s1
Instrument: maXis plus UHR-ToF-MS, Bruker Daltonics
Instrument type: LC-ESI-QTOF
Ms type: MS2
Ion mode: POSITIVE
Ionization: ESI
Fragmentation mode: CID
Collision energy: 40
Column name: CORTECS UPLC C18 1.6um, 2.1x150mm, Waters
Retention time: 14.498 min
Base peak: 768.5523
Precursor m/z: 768.5538
Precursor type: [M+H]+
m/z	relative intensity
95.0864	142
97.066	21
97.1019	65
98.1062	2
98.9849	2
99.0808	5
99.1179	13
101.0597	2
101.1747	1
105.0705	48
107.0859	33
109.0658	3
109.1015	54
111.0816	1
111.117	19
111.3488	1
112.1007	1
113.0963	3
113.133	10
115.0537	1
115.3228	1
117.0698	24
119.0858	67
121.0654	2
121.1013	32
123.0814	10
123.1171	32
124.0157	4
125.0961	6
125.1309	4
127.1469	2
129.0695	14
131.0863	33
132.0901	3
133.101	40
135.0818	2
135.1171	19
137.0975	2
137.1332	16
137.966	1
138.1392	2
139.1478	1
141.1268	1
142.0291	2
142.0744	1
142.2376	1
143.0847	6
145.1013	16
146.1017	2
147.0817	2
147.1163	20
149.0948	2
149.1328	6
151.1495	8
153.1349	1
155.0116	6
155.177	2
155.5278	1
157.1009	18
158.1054	1
159.1171	13
161.0977	2
161.1317	15
161.9746	1
162.134	3
163.1119	3
163.1487	12
165.1638	3
167.0664	1
168.1127	1
169.102	2
171.1162	17
173.064	1
173.1299	4
175.11	4
175.1471	12
176.1509	1
176.3556	1
177.1279	2
177.1627	8
180.1782	2
181.5996	1
182.3742	1
183.12	1
185.1313	8
186.1338	1
187.1474	5
189.1271	1
189.1635	9
191.106	1
191.1782	3
191.279	1
193.1932	2
197.1308	1
198.0518	2
198.1535	1
199.1484	10
199.1972	1
201.1278	2
201.1622	6
203.1792	88
205.1199	1
205.1946	1
212.2333	1
213.1616	2
214.5428	1
215.1788	5
216.2751	1
227.1774	3
229.1926	2
232.2386	2
236.356	1
236.5652	1
241.1919	7
245.1888	2
247.5758	1
248.4874	1
249.2566	6
252.4396	1
252.5228	1
260.0399	1
262.2054	1
264.4377	1
267.211	2
267.2672	38
268.2448	1
268.2703	8
269.0771	1
269.2255	29
270.2294	8
271.0199	1
271.2445	4
273.5949	1
275.2302	1
285.2228	1
285.2782	9
286.2788	1
287.2369	5
288.2403	3
297.4835	1
299.9901	1
301.0937	1
302.4141	1
303.2893	2
307.2484	1
310.3101	18
311.3134	3
316.1204	1
321.1553	1
322.0158	1
325.2493	2
325.3104	3
329.1555	1
330.2794	65
331.282	10
337.4223	1
339.2879	11
340.2911	1
341.3043	725
342.3077	111
343.2208	2
343.2629	6
343.3105	9
344.2642	1
361.2722	28
362.2756	6
395.3151	33
396.318	8
421.2698	6
446.3109	1
463.3769	5
464.3129	4
465.3178	2
477.3873	1
482.3224	5
571.0087	1
580.5886	1
582.3362	1
593.115	1
602.5089	1
625.3476	1
626.0783	1
626.3234	1
626.4155	1
626.4655	2
626.5422	1
626.6058	1
626.9387	3
627.5342	999
628.5372	341
629.5402	37
630.5352	2
