Mass spectrum: PE(16:0/22:6(4Z,7Z,10Z,13Z,16Z,19Z)); LC-ESI-QTOF; MS2; CE: 40; R=; [M+Na]+
Name: PE(16:0/22:6(4Z,7Z,10Z,13Z,16Z,19Z))
Formula: C43H74NO8P
Exact mass: 763.5152
SMILES: CCCCCCCCCCCCCCCC(=O)OC[C@H](COP(O)(=O)OCCN)OC(=O)CC\C=C/C\C=C/C\C=C/C\C=C/C\C=C/C\C=C/CC
InChI: InChI=1S/C43H74NO8P/c1-3-5-7-9-11-13-15-17-18-19-20-21-22-24-26-28-30-32-34-36-43(46)52-41(40-51-53(47,48)50-38-37-44)39-49-42(45)35-33-31-29-27-25-23-16-14-12-10-8-6-4-2/h5,7,11,13,17-18,20-21,24,26,30,32,41H,3-4,6,8-10,12,14-16,19,22-23,25,27-29,31,33-40,44H2,1-2H3,(H,47,48)/b7-5-,13-11-,18-17-,21-20-,26-24-,32-30-/t41-/m1/s1
Instrument: maXis plus UHR-ToF-MS, Bruker Daltonics
Instrument type: LC-ESI-QTOF
Ms type: MS2
Ion mode: POSITIVE
Ionization: ESI
Fragmentation mode: CID
Collision energy: 40
Column name: CORTECS UPLC C18 1.6um, 2.1x150mm, Waters
Retention time: 12.999 min
Base peak: 764.5204
Precursor m/z: 786.5044
Precursor type: [M+Na]+
m/z	relative intensity
95.0861	28
120.9657	278
123.1159	22
137.1332	21
138.976	23
145.998	100
152.0112	25
164.0089	704
415.2227	67
433.2261	28
487.2219	54
623.5005	197
624.5034	45
645.4831	999
646.487	253
647.4869	66
663.4941	93
664.4914	28
743.4597	402
744.4611	110
745.4693	26
786.5034	185
