Mass spectrum: PG(18:0/18:0); LC-ESI-QTOF; MS2; CE: 40; R=; [M+Na]+
Name: PG(18:0/18:0)
Formula: C42H83O10P
Exact mass: 778.5724
SMILES: CCCCCCCCCCCCCCCCCC(=O)OC[C@H](COP(O)(=O)OC[C@@H](O)CO)OC(=O)CCCCCCCCCCCCCCCCC
InChI: InChI=1S/C42H83O10P/c1-3-5-7-9-11-13-15-17-19-21-23-25-27-29-31-33-41(45)49-37-40(38-51-53(47,48)50-36-39(44)35-43)52-42(46)34-32-30-28-26-24-22-20-18-16-14-12-10-8-6-4-2/h39-40,43-44H,3-38H2,1-2H3,(H,47,48)/t39-,40+/m0/s1
Instrument: maXis plus UHR-ToF-MS, Bruker Daltonics
Instrument type: LC-ESI-QTOF
Ms type: MS2
Ion mode: POSITIVE
Ionization: ESI
Fragmentation mode: CID
Collision energy: 40
Column name: CORTECS UPLC C18 1.6um, 2.1x150mm, Waters
Retention time: 15.379 min
Base peak: 447.3467
Precursor m/z: 801.5616
Precursor type: [M+Na]+
m/z	relative intensity
97.1016	13
105.0705	9
139.1307	8
176.9947	13
194.219	9
195.0026	999
196.0049	26
267.2673	9
341.308	11
426.247	10
443.2558	11
469.3303	12
517.305	12
607.5651	89
608.5704	49
609.5696	37
610.572	42
611.5764	14
629.551	46
647.551	11
801.5592	77
