Mass spectrum: PC(15:0/15:0); LC-ESI-QTOF; MS2; CE: 40; R=; [M+H]+
Name: PC(15:0/15:0)
Name: 1,2-Dipentadecanoyl-sn-glycero-3-phosphocholine
Name: [(2R)-2,3-di(pentadecanoyloxy)propyl] 2-(trimethylazaniumyl)ethyl phosphate
Formula: C38H76NO8P
Exact mass: 705.5309
SMILES: CCCCCCCCCCCCCCC(=O)OC[C@H](COP([O-])(=O)OCC[N+](C)(C)C)OC(=O)CCCCCCCCCCCCCC
InChI: InChI=1S/C38H76NO8P/c1-6-8-10-12-14-16-18-20-22-24-26-28-30-37(40)44-34-36(35-46-48(42,43)45-33-32-39(3,4)5)47-38(41)31-29-27-25-23-21-19-17-15-13-11-9-7-2/h36H,6-35H2,1-5H3/t36-/m1/s1
Instrument: maXis plus UHR-ToF-MS, Bruker Daltonics
Instrument type: LC-ESI-QTOF
Ms type: MS2
Ion mode: POSITIVE
Ionization: ESI
Fragmentation mode: CID
Collision energy: 40
Column name: CORTECS UPLC C18 1.6um, 2.1x150mm, Waters
Retention time: 12.954 min
Base peak: 706.5377
Precursor m/z: 706.5381
Precursor type: [M+H]+
m/z	relative intensity
95.0864	1
104.1074	23
125	37
166.063	1
184.0733	999
464.3127	3
482.3241	4
523.4722	1
706.5376	8
