Mass spectrum: PA(17:0/17:0); LC-ESI-QTOF; MS2; CE: 20; R=; [M+NH4]+
Name: PA(17:0/17:0)
Formula: C37H73O8P
Exact mass: 676.5043
SMILES: CCCCCCCCCCCCCCCCC(=O)OC[C@H](COP(O)(O)=O)OC(=O)CCCCCCCCCCCCCCCC
InChI: InChI=1S/C37H73O8P/c1-3-5-7-9-11-13-15-17-19-21-23-25-27-29-31-36(38)43-33-35(34-44-46(40,41)42)45-37(39)32-30-28-26-24-22-20-18-16-14-12-10-8-6-4-2/h35H,3-34H2,1-2H3,(H2,40,41,42)/t35-/m1/s1
Instrument: maXis plus UHR-ToF-MS, Bruker Daltonics
Instrument type: LC-ESI-QTOF
Ms type: MS2
Ion mode: POSITIVE
Ionization: ESI
Fragmentation mode: CID
Collision energy: 20
Column name: CORTECS UPLC C18 1.6um, 2.1x150mm, Waters
Retention time: 17.238 min
Base peak: 447.3464
Precursor m/z: 694.5381
Precursor type: [M+NH4]+
m/z	relative intensity
141.1267	278
447.343	241
469.3213	497
485.3125	282
550.1076	223
579.5336	999
580.5409	415
653.4715	319
