Mass spectrum: PE(18:0/18:1(9Z)); LC-ESI-QTOF; MS2; CE: 40; R=; [M+H]+
Name: PE(18:0/18:1(9Z))
Formula: C41H80NO8P
Exact mass: 745.5622
SMILES: [H][C@@](COC(=O)CCCCCCCCCCCCCCCCC)(COP(O)(=O)OCCN)OC(=O)CCCCCCC\C=C/CCCCCCCC
InChI: InChI=1S/C41H80NO8P/c1-3-5-7-9-11-13-15-17-19-21-23-25-27-29-31-33-40(43)47-37-39(38-49-51(45,46)48-36-35-42)50-41(44)34-32-30-28-26-24-22-20-18-16-14-12-10-8-6-4-2/h18,20,39H,3-17,19,21-38,42H2,1-2H3,(H,45,46)/b20-18-/t39-/m1/s1
Instrument: maXis plus UHR-ToF-MS, Bruker Daltonics
Instrument type: LC-ESI-QTOF
Ms type: MS2
Ion mode: POSITIVE
Ionization: ESI
Fragmentation mode: CID
Collision energy: 40
Column name: CORTECS UPLC C18 1.6um, 2.1x150mm, Waters
Retention time: 15.569 min
Base peak: 746.5679
Precursor m/z: 746.5694
Precursor type: [M+H]+
m/z	relative intensity
95.0859	130
97.1014	90
99.0806	5
99.1172	14
101.0958	2
107.086	8
109.1012	66
111.0807	2
111.1167	45
112.1214	1
113.0974	1
113.1326	7
121.1013	23
123.117	39
124.0158	1
125.0964	1
125.1328	9
127.1126	1
127.1485	4
133.0851	1
135.1174	28
137.1329	17
138.1367	1
139.1129	1
139.1481	2
141.1283	1
141.1631	1
149.1334	8
150.1365	1
151.149	13
153.1276	6
155.0109	1
165.165	5
167.1787	1
169.1597	1
179.1807	1
193.1988	1
247.2424	13
248.2447	1
249.2574	6
250.2606	1
265.2523	61
266.2563	8
267.2683	39
268.2719	4
308.2942	26
309.2978	4
310.3106	10
311.3148	1
321.2782	3
339.2895	19
340.2935	3
341.3047	17
342.3068	3
421.274	2
422.2748	1
446.3022	1
464.3135	1
482.3228	2
604.3118	1
604.4049	1
604.4783	1
604.6159	1
605.5508	999
606.5532	347
607.5565	46
608.5604	1
