Mass spectrum: PG(16:0/20:4(5Z,8Z,11Z,14Z)); LC-ESI-QTOF; MS2; CE: 40; R=; [M+H]+
Name: PG(16:0/20:4(5Z,8Z,11Z,14Z))
Formula: C42H75O10P
Exact mass: 770.5098
SMILES: CCCCCCCCCCCCCCCC(=O)OC[C@H](COP(O)(=O)OC[C@@H](O)CO)OC(=O)CCC\C=C/C\C=C/C\C=C/C\C=C/CCCCC
InChI: InChI=1S/C42H75O10P/c1-3-5-7-9-11-13-15-17-18-19-20-22-24-26-28-30-32-34-42(46)52-40(38-51-53(47,48)50-36-39(44)35-43)37-49-41(45)33-31-29-27-25-23-21-16-14-12-10-8-6-4-2/h11,13,17-18,20,22,26,28,39-40,43-44H,3-10,12,14-16,19,21,23-25,27,29-38H2,1-2H3,(H,47,48)/b13-11-,18-17-,22-20-,28-26-/t39-,40+/m0/s1
Instrument: maXis plus UHR-ToF-MS, Bruker Daltonics
Instrument type: LC-ESI-QTOF
Ms type: MS2
Ion mode: POSITIVE
Ionization: ESI
Fragmentation mode: CID
Collision energy: 40
Column name: CORTECS UPLC C18 1.6um, 2.1x150mm, Waters
Retention time: 12.180 min
Base peak: 447.3473
Precursor m/z: 771.5171
Precursor type: [M+H]+
m/z	relative intensity
133.0856	297
137.0605	259
147.1164	324
149.0228	453
265.146	340
313.2762	712
314.2805	502
327.1743	259
469.3262	567
470.3351	286
599.5054	999
600.5094	901
