Mass spectrum: PG(14:0/14:0); LC-ESI-QTOF; MS2; CE: 40; R=; [M+H]+
Name: PG(14:0/14:0)
Formula: C34H67O10P
Exact mass: 666.4472
SMILES: C([C@H](CO)O)OP(=O)(O)OC[C@H](OC(CCCCCCCCCCCCC)=O)COC(CCCCCCCCCCCCC)=O
InChI: InChI=1S/C34H67O10P/c1-3-5-7-9-11-13-15-17-19-21-23-25-33(37)41-29-32(30-43-45(39,40)42-28-31(36)27-35)44-34(38)26-24-22-20-18-16-14-12-10-8-6-4-2/h31-32,35-36H,3-30H2,1-2H3,(H,39,40)/t31-,32+/m0/s1
Instrument: maXis plus UHR-ToF-MS, Bruker Daltonics
Instrument type: LC-ESI-QTOF
Ms type: MS2
Ion mode: POSITIVE
Ionization: ESI
Fragmentation mode: CID
Collision energy: 40
Column name: CORTECS UPLC C18 1.6um, 2.1x150mm, Waters
Retention time: 10.622 min
Base peak: 684.4805
Precursor m/z: 667.4545
Precursor type: [M+H]+
m/z	relative intensity
95.0861	436
97.1013	132
99.1173	39
109.1013	174
111.1171	79
113.1321	19
123.1172	117
127.1477	13
137.1324	64
151.1471	9
155.0116	5
193.194	20
211.2059	277
212.2104	38
285.2411	107
286.2469	17
421.2339	6
453.3992	5
472.1897	7
495.4409	999
496.4442	304
497.4478	34
498.451	7
