Mass spectrum: PA(16:0/18:2(9Z,12Z)); LC-ESI-QTOF; MS2; CE: 40; R=; [M+NH4]+
Name: PA(16:0/18:2(9Z,12Z))
Formula: C37H69O8P
Exact mass: 672.4730
SMILES: CCCCCCCCCCCCCCCC(=O)OC[C@H](COP(O)(O)=O)OC(=O)CCCCCCC\C=C/C\C=C/CCCCC
InChI: InChI=1S/C37H69O8P/c1-3-5-7-9-11-13-15-17-18-20-22-24-26-28-30-32-37(39)45-35(34-44-46(40,41)42)33-43-36(38)31-29-27-25-23-21-19-16-14-12-10-8-6-4-2/h11,13,17-18,35H,3-10,12,14-16,19-34H2,1-2H3,(H2,40,41,42)/b13-11-,18-17-/t35-/m1/s1
Instrument: maXis plus UHR-ToF-MS, Bruker Daltonics
Instrument type: LC-ESI-QTOF
Ms type: MS2
Ion mode: POSITIVE
Ionization: ESI
Fragmentation mode: CID
Collision energy: 40
Column name: CORTECS UPLC C18 1.6um, 2.1x150mm, Waters
Retention time: 13.142 min
Base peak: 447.3457
Precursor m/z: 690.5068
Precursor type: [M+NH4]+
m/z	relative intensity
95.0862	148
98.9844	45
99.0816	34
99.1168	54
109.101	61
123.1179	60
133.0857	54
137.1341	35
149.0213	40
161.1317	31
171.1394	77
173.1343	28
239.2377	48
240.2364	35
263.2345	71
264.2423	29
314.2777	34
329.1718	39
337.2725	47
469.3276	173
470.3303	61
512.4039	34
513.4	38
514.4071	36
575.5029	999
576.5044	383
577.5098	55
