Mass spectrum: PE(16:0/18:2(9Z,12Z)); LC-ESI-QTOF; MS2; CE: 20; R=; [M+H]+
Name: PE(16:0/18:2(9Z,12Z))
Formula: C39H74NO8P
Exact mass: 715.5152
SMILES: [H][C@@](COC(=O)CCCCCCCCCCCCCCC)(COP(O)(=O)OCCN)OC(=O)CCCCCCC\C=C/C\C=C/CCCCC
InChI: InChI=1S/C39H74NO8P/c1-3-5-7-9-11-13-15-17-18-20-22-24-26-28-30-32-39(42)48-37(36-47-49(43,44)46-34-33-40)35-45-38(41)31-29-27-25-23-21-19-16-14-12-10-8-6-4-2/h11,13,17-18,37H,3-10,12,14-16,19-36,40H2,1-2H3,(H,43,44)/b13-11-,18-17-/t37-/m1/s1
Instrument: maXis plus UHR-ToF-MS, Bruker Daltonics
Instrument type: LC-ESI-QTOF
Ms type: MS2
Ion mode: POSITIVE
Ionization: ESI
Fragmentation mode: CID
Collision energy: 20
Column name: CORTECS UPLC C18 1.6um, 2.1x150mm, Waters
Retention time: 13.631 min
Base peak: 716.5204
Precursor m/z: 716.5225
Precursor type: [M+H]+
m/z	relative intensity
109.1001	1
137.1334	1
239.2352	1
282.2808	1
306.2791	6
313.2747	1
319.2617	1
337.2728	5
393.237	1
418.273	2
436.2824	3
454.2935	5
460.2815	3
478.2888	1
574.3195	1
574.4503	1
574.4861	1
574.53	1
574.5688	1
574.9723	1
575.5024	999
576.5057	321
577.5089	44
578.5087	1
716.5208	493
