Mass spectrum: PE(16:0/18:2(9Z,12Z)); LC-ESI-QTOF; MS2; CE: 40; R=; [M+Na]+
Name: PE(16:0/18:2(9Z,12Z))
Formula: C39H74NO8P
Exact mass: 715.5152
SMILES: [H][C@@](COC(=O)CCCCCCCCCCCCCCC)(COP(O)(=O)OCCN)OC(=O)CCCCCCC\C=C/C\C=C/CCCCC
InChI: InChI=1S/C39H74NO8P/c1-3-5-7-9-11-13-15-17-18-20-22-24-26-28-30-32-39(42)48-37(36-47-49(43,44)46-34-33-40)35-45-38(41)31-29-27-25-23-21-19-16-14-12-10-8-6-4-2/h11,13,17-18,37H,3-10,12,14-16,19-36,40H2,1-2H3,(H,43,44)/b13-11-,18-17-/t37-/m1/s1
Instrument: maXis plus UHR-ToF-MS, Bruker Daltonics
Instrument type: LC-ESI-QTOF
Ms type: MS2
Ion mode: POSITIVE
Ionization: ESI
Fragmentation mode: CID
Collision energy: 40
Column name: CORTECS UPLC C18 1.6um, 2.1x150mm, Waters
Retention time: 13.625 min
Base peak: 716.5214
Precursor m/z: 738.5044
Precursor type: [M+Na]+
m/z	relative intensity
95.0864	19
117.0914	32
120.966	389
123.1159	38
164.0086	999
166.1618	18
182.0182	25
189.1629	24
415.2213	72
433.2367	18
439.222	88
573.4039	19
575.5021	387
576.5056	124
577.5038	40
597.4845	634
598.4887	149
599.4907	26
615.4943	36
695.463	231
696.4625	121
738.5016	142
