Mass spectrum: PC(18:0/20:4(5Z,8Z,11Z,14Z)); LC-ESI-QTOF; MS2; CE: 10; R=; [M+H]+
Name: PC(18:0/20:4(5Z,8Z,11Z,14Z))
Name: 1-Stearoyl-2-arachidonoyl-sn-glycero-3-phosphocholine
Name: [(2R)-2-[(5Z,8Z,11Z,14Z)-icosa-5,8,11,14-tetraenoyl]oxy-3-octadecanoyloxypropyl] 2-(trimethylazaniumyl)ethyl phosphate
Formula: C46H84NO8P
Exact mass: 809.5935
SMILES: O=C(CCC/C=C\C/C=C\C/C=C\C/C=C\CCCCC)O[C@@H](COP(OCC[N+](C)(C)C)(=O)[O-])COC(=O)CCCCCCCCCCCCCCCCC
InChI: InChI=1S/C46H84NO8P/c1-6-8-10-12-14-16-18-20-22-23-25-27-29-31-33-35-37-39-46(49)55-44(43-54-56(50,51)53-41-40-47(3,4)5)42-52-45(48)38-36-34-32-30-28-26-24-21-19-17-15-13-11-9-7-2/h14,16,20,22,25,27,31,33,44H,6-13,15,17-19,21,23-24,26,28-30,32,34-43H2,1-5H3/b16-14-,22-20-,27-25-,33-31-/t44-/m1/s1
Instrument: maXis plus UHR-ToF-MS, Bruker Daltonics
Instrument type: LC-ESI-QTOF
Ms type: MS2
Ion mode: POSITIVE
Ionization: ESI
Fragmentation mode: CID
Collision energy: 10
Column name: CORTECS UPLC C18 1.6um, 2.1x150mm, Waters
Retention time: 14.224 min
Base peak: 810.5994
Precursor m/z: 810.6007
Precursor type: [M+H]+
m/z	relative intensity
184.0736	15
810.6005	999
