Mass spectrum: PC(18:0/18:2(9Z,12Z)); LC-ESI-QTOF; MS2; CE: 20; R=; [M+Na]+
Name: PC(18:0/18:2(9Z,12Z))
Name: 1-Stearoyl-2-linoleoyl-sn-glycero-3-phosphatidylcholine
Name: [(2R)-2-[(9Z,12Z)-octadeca-9,12-dienoyl]oxy-3-octadecanoyloxypropyl] 2-(trimethylazaniumyl)ethyl phosphate
Formula: C44H84NO8P
Exact mass: 785.5935
SMILES: CCCCCCCCCCCCCCCCCC(=O)OC[C@H](COP([O-])(=O)OCC[N+](C)(C)C)OC(=O)CCCCCCC\C=C/C\C=C/CCCCC
InChI: InChI=1S/C44H84NO8P/c1-6-8-10-12-14-16-18-20-22-24-26-28-30-32-34-36-43(46)50-40-42(41-52-54(48,49)51-39-38-45(3,4)5)53-44(47)37-35-33-31-29-27-25-23-21-19-17-15-13-11-9-7-2/h15,17,21,23,42H,6-14,16,18-20,22,24-41H2,1-5H3/b17-15-,23-21-/t42-/m1/s1
Instrument: maXis plus UHR-ToF-MS, Bruker Daltonics
Instrument type: LC-ESI-QTOF
Ms type: MS2
Ion mode: POSITIVE
Ionization: ESI
Fragmentation mode: CID
Collision energy: 20
Column name: CORTECS UPLC C18 1.6um, 2.1x150mm, Waters
Retention time: 14.474 min
Base peak: 786.5992
Precursor m/z: 808.5827
Precursor type: [M+Na]+
m/z	relative intensity
146.982	10
625.5178	15
749.5096	23
808.5813	999
