Mass spectrum: PG(15:0/15:0); LC-ESI-QTOF; MS2; CE: 40; R=; [M+H]+
Name: PG(15:0/15:0)
Formula: C36H71O10P
Exact mass: 694.4785
SMILES: CCCCCCCCCCCCCCC(=O)OC[C@H](COP(O)(=O)OC[C@@H](O)CO)OC(=O)CCCCCCCCCCCCCC
InChI: InChI=1S/C36H71O10P/c1-3-5-7-9-11-13-15-17-19-21-23-25-27-35(39)43-31-34(32-45-47(41,42)44-30-33(38)29-37)46-36(40)28-26-24-22-20-18-16-14-12-10-8-6-4-2/h33-34,37-38H,3-32H2,1-2H3,(H,41,42)/t33-,34+/m0/s1
Instrument: maXis plus UHR-ToF-MS, Bruker Daltonics
Instrument type: LC-ESI-QTOF
Ms type: MS2
Ion mode: POSITIVE
Ionization: ESI
Fragmentation mode: CID
Collision energy: 40
Column name: CORTECS UPLC C18 1.6um, 2.1x150mm, Waters
Retention time: 12.060 min
Base peak: 447.347
Precursor m/z: 695.4858
Precursor type: [M+H]+
m/z	relative intensity
95.085	144
97.1013	91
111.1167	70
123.1161	115
126.3708	58
137.1296	57
177.1092	60
225.2215	451
233.176	64
299.2568	98
469.3281	94
523.4717	999
524.4747	342
