Mass spectrum: PE(18:0/18:2(9Z,12Z)); LC-ESI-QTOF; MS2; CE: 40; R=; [M+Na]+
Name: PE(18:0/18:2(9Z,12Z))
Formula: C41H78NO8P
Exact mass: 743.5465
SMILES: C(CCCCCCCCCC)CCCCCCC(=O)OC[C@H](COP(=O)(OCCN)O)OC(=O)CCCCCCC/C=C\C/C=C\CCCCC
InChI: InChI=1S/C41H78NO8P/c1-3-5-7-9-11-13-15-17-19-21-23-25-27-29-31-33-40(43)47-37-39(38-49-51(45,46)48-36-35-42)50-41(44)34-32-30-28-26-24-22-20-18-16-14-12-10-8-6-4-2/h12,14,18,20,39H,3-11,13,15-17,19,21-38,42H2,1-2H3,(H,45,46)/b14-12-,20-18-/t39-/m1/s1
Instrument: maXis plus UHR-ToF-MS, Bruker Daltonics
Instrument type: LC-ESI-QTOF
Ms type: MS2
Ion mode: POSITIVE
Ionization: ESI
Fragmentation mode: CID
Collision energy: 40
Column name: CORTECS UPLC C18 1.6um, 2.1x150mm, Waters
Retention time: 14.677 min
Base peak: 744.5528
Precursor m/z: 766.5357
Precursor type: [M+Na]+
m/z	relative intensity
97.0647	30
102.0918	28
104.0703	26
110.3098	24
115.0755	27
120.9664	513
137.0973	26
138.978	47
164.0092	999
263.2375	25
267.2667	31
439.2218	45
443.2557	30
461.2625	24
603.5327	347
604.5358	135
625.5161	524
626.5187	219
643.5233	36
723.4902	374
724.4971	120
766.5359	138
