Mass spectrum: PG(14:0/14:0); LC-ESI-QTOF; MS2; CE: 20; R=; [M+Na]+
Name: PG(14:0/14:0)
Formula: C34H67O10P
Exact mass: 666.4472
SMILES: C([C@H](CO)O)OP(=O)(O)OC[C@H](OC(CCCCCCCCCCCCC)=O)COC(CCCCCCCCCCCCC)=O
InChI: InChI=1S/C34H67O10P/c1-3-5-7-9-11-13-15-17-19-21-23-25-33(37)41-29-32(30-43-45(39,40)42-28-31(36)27-35)44-34(38)26-24-22-20-18-16-14-12-10-8-6-4-2/h31-32,35-36H,3-30H2,1-2H3,(H,39,40)/t31-,32+/m0/s1
Instrument: maXis plus UHR-ToF-MS, Bruker Daltonics
Instrument type: LC-ESI-QTOF
Ms type: MS2
Ion mode: POSITIVE
Ionization: ESI
Fragmentation mode: CID
Collision energy: 20
Column name: CORTECS UPLC C18 1.6um, 2.1x150mm, Waters
Retention time: 10.585 min
Base peak: 684.4808
Precursor m/z: 689.4364
Precursor type: [M+Na]+
m/z	relative intensity
171.1398	5
195.0027	218
196.0073	5
286.2458	14
287.2441	7
384.0673	5
489.0593	5
495.4397	85
496.4441	101
497.4472	156
498.4492	285
499.4528	49
500.4468	6
517.4224	9
689.4352	999
