Mass spectrum: PS(16:0/18:1(9Z)); LC-ESI-QTOF; MS2; CE: 40; R=; [M+H]+
Name: PS(16:0/18:1(9Z))
Formula: C40H76NO10P
Exact mass: 761.5207
SMILES: [H][C@](N)(COP(O)(=O)OC[C@@]([H])(COC(=O)CCCCCCCCCCCCCCC)OC(=O)CCCCCCC\C=C/CCCCCCCC)C(O)=O
InChI: InChI=1S/C40H76NO10P/c1-3-5-7-9-11-13-15-17-18-20-22-24-26-28-30-32-39(43)51-36(34-49-52(46,47)50-35-37(41)40(44)45)33-48-38(42)31-29-27-25-23-21-19-16-14-12-10-8-6-4-2/h17-18,36-37H,3-16,19-35,41H2,1-2H3,(H,44,45)(H,46,47)/b18-17-/t36-,37+/m1/s1
Instrument: maXis plus UHR-ToF-MS, Bruker Daltonics
Instrument type: LC-ESI-QTOF
Ms type: MS2
Ion mode: POSITIVE
Ionization: ESI
Fragmentation mode: CID
Collision energy: 40
Column name: CORTECS UPLC C18 1.6um, 2.1x150mm, Waters
Retention time: 13.305 min
Base peak: 447.3471
Precursor m/z: 762.528
Precursor type: [M+H]+
m/z	relative intensity
95.0862	84
97.0659	3
97.1018	51
99.0805	5
99.1172	8
106.0506	13
107.0857	5
109.1016	49
111.0779	1
111.1175	23
121.1012	18
123.1169	27
125.1326	10
126.1379	1
127.1097	2
135.1173	10
136.1189	4
137.1332	13
139.117	2
139.1473	4
141.1632	3
142.2989	1
149.1327	12
151.1499	5
152.0383	1
153.1289	4
155.0115	8
155.0465	1
163.1493	3
165.163	7
175.1416	2
177.1641	3
179.1768	2
181.1573	2
183.4644	2
184.2462	2
190.2812	1
191.1784	1
192.3208	1
213.0888	1
215.5208	1
221.1047	2
221.227	3
236.3522	1
239.2368	40
240.2413	5
247.2424	22
248.1912	2
258.2808	1
265.252	76
266.2548	10
298.3268	2
310.28	1
313.2729	30
314.2779	8
321.2803	4
326.269	10
327.269	2
338.0558	1
339.2893	38
340.2936	6
352.0099	1
352.2839	32
353.2853	7
392.0453	1
393.2409	14
394.2394	3
396.1885	2
419.2556	2
444.3204	1
451.4541	2
462.2551	2
480.2729	5
492.5793	2
498.2805	1
506.1886	1
517.4092	2
535.483	2
538.3873	1
574.1141	2
575.3381	1
576.1837	1
576.4653	2
576.5897	2
576.931	2
576.9552	2
577.5187	999
578.5223	297
579.2074	3
579.5248	43
