Mass spectrum: PE(18:0/22:6(4Z,7Z,10Z,13Z,16Z,19Z)); LC-ESI-QTOF; MS2; CE: 40; R=; [M+H]+
Name: PE(18:0/22:6(4Z,7Z,10Z,13Z,16Z,19Z))
Formula: C45H78NO8P
Exact mass: 791.5465
SMILES: CCCCCCCCCCCCCCCCCC(=O)OC[C@H](COP(O)(=O)OCCN)OC(=O)CC\C=C/C\C=C/C\C=C/C\C=C/C\C=C/C\C=C/CC
InChI: InChI=1S/C45H78NO8P/c1-3-5-7-9-11-13-15-17-19-20-21-22-24-26-28-30-32-34-36-38-45(48)54-43(42-53-55(49,50)52-40-39-46)41-51-44(47)37-35-33-31-29-27-25-23-18-16-14-12-10-8-6-4-2/h5,7,11,13,17,19,21-22,26,28,32,34,43H,3-4,6,8-10,12,14-16,18,20,23-25,27,29-31,33,35-42,46H2,1-2H3,(H,49,50)/b7-5-,13-11-,19-17-,22-21-,28-26-,34-32-/t43-/m1/s1
Instrument: maXis plus UHR-ToF-MS, Bruker Daltonics
Instrument type: LC-ESI-QTOF
Ms type: MS2
Ion mode: POSITIVE
Ionization: ESI
Fragmentation mode: CID
Collision energy: 40
Column name: CORTECS UPLC C18 1.6um, 2.1x150mm, Waters
Retention time: 14.160 min
Base peak: 792.5522
Precursor m/z: 792.5538
Precursor type: [M+H]+
m/z	relative intensity
95.0865	88
96.0903	8
97.102	42
99.0803	2
99.1179	8
105.0704	42
107.0861	31
109.0643	4
109.1014	45
111.118	17
112.052	1
113.0609	2
113.1309	2
115.0525	1
117.07	34
119.0855	37
120.0898	5
121.0653	3
121.1015	21
123.0817	1
123.117	24
124.0171	3
125.0593	1
125.1328	3
127.149	5
128.0634	1
129.0698	13
131.0853	43
133.1015	25
135.0788	4
135.1161	7
136.1215	1
137.0946	2
137.1323	9
140.1414	1
141.0704	6
141.1617	1
142.2995	1
143.0859	8
145.1012	25
146.1054	2
147.1166	11
149.0972	1
149.1308	2
151.1484	2
155.0128	4
155.0863	4
157.1003	9
159.0785	2
159.118	12
161.1328	9
162.0294	1
162.1374	1
165.0958	1
165.1632	2
167.0849	2
169.101	6
171.1172	7
173.0941	1
173.1334	9
174.1379	2
175.1481	4
175.405	1
177.0888	2
179.1067	1
179.1792	1
181.1007	4
183.1169	6
183.2103	1
184.1336	1
185.1316	6
187.1113	1
187.1468	4
188.3451	1
189.1273	1
189.1617	1
189.183	1
193.1971	1
197.1331	2
199.1161	2
199.1494	6
201.1264	1
201.1633	10
202.1686	1
203.1069	1
208.1288	1
209.1353	2
211.1473	3
212.1511	1
212.4185	1
213.1646	2
214.1683	2
223.1468	5
225.162	4
227.1406	1
227.1803	4
228.1827	1
229.1576	1
233.0845	1
237.1612	1
238.1669	1
239.1785	3
241.192	1
249.2577	5
251.1448	1
257.1518	1
267.267	40
268.2682	4
269.1492	1
269.231	1
271.1674	1
273.1834	1
279.1741	1
285.1871	1
290.1672	1
293.2253	3
310.3089	8
311.2367	5
311.3115	4
322.9783	1
323.2914	1
324.2989	1
325.3107	1
340.3754	1
341.304	53
342.3076	9
354.2769	35
355.2815	10
367.2619	5
368.2672	1
369.3127	1
383.2572	1
383.315	1
385.2277	1
385.2735	27
386.2772	6
395.3141	1
396.3177	1
421.2694	3
422.2679	1
446.3024	3
464.3116	3
465.3104	1
482.3237	5
533.3763	1
562.4885	1
569.2723	1
574.1164	1
597.2018	1
597.4558	1
608.9567	1
613.2541	1
643.1437	1
650.0237	1
650.0679	1
650.1329	1
650.2651	1
650.3096	2
650.4206	2
650.5128	1
650.5726	2
650.9388	1
650.9878	1
651.5336	999
652.537	393
653.0391	1
653.5399	49
654.5494	2
695.574	1
