Mass spectrum: PC(18:1(9Z)/16:0); LC-ESI-QTOF; MS2; CE: 40; R=; [M+Na]+
Name: PC(18:1(9Z)/16:0)
Name: 1-Oleoyl-2-palmitoyl-sn-glycero-3-phosphocholine
Name: [(2R)-2-hexadecanoyloxy-3-[(Z)-octadec-9-enoyl]oxypropyl] 2-(trimethylazaniumyl)ethyl phosphate
Formula: C42H82NO8P
Exact mass: 759.5778
SMILES: CCCCCCCCCCCCCCCC(=O)O[C@H](COC(=O)CCCCCCC\C=C/CCCCCCCC)COP([O-])(=O)OCC[N+](C)(C)C
InChI: InChI=1S/C42H82NO8P/c1-6-8-10-12-14-16-18-20-21-23-24-26-28-30-32-34-41(44)48-38-40(39-50-52(46,47)49-37-36-43(3,4)5)51-42(45)35-33-31-29-27-25-22-19-17-15-13-11-9-7-2/h20-21,40H,6-19,22-39H2,1-5H3/b21-20-/t40-/m1/s1
Instrument: maXis plus UHR-ToF-MS, Bruker Daltonics
Instrument type: LC-ESI-QTOF
Ms type: MS2
Ion mode: POSITIVE
Ionization: ESI
Fragmentation mode: CID
Collision energy: 40
Column name: CORTECS UPLC C18 1.6um, 2.1x150mm, Waters
Retention time: 14.276 min
Base peak: 760.583
Precursor m/z: 782.567
Precursor type: [M+Na]+
m/z	relative intensity
95.0861	23
107.0852	21
111.1155	34
133.2255	22
137.1327	20
146.9822	999
161.1375	26
164.994	90
184.0735	44
441.2365	65
442.2403	25
500.3114	35
504.3432	20
577.3694	20
577.5185	246
578.5185	46
599.4985	864
600.5028	298
723.4935	441
724.4971	147
725.496	21
782.5649	410
