Mass spectrum: PC(17:0/17:0); LC-ESI-QTOF; MS2; CE: 10; R=; [M+H]+
Name: PC(17:0/17:0)
Name: 1,2-Diheptadecanoyl-sn-glycero-3-phosphocholine
Name: [(2R)-2,3-di(heptadecanoyloxy)propyl] 2-(trimethylazaniumyl)ethyl phosphate
Formula: C42H84NO8P
Exact mass: 761.5935
SMILES: [C@](COC(=O)CCCCCCCCCCCCCCCC)(OC(=O)CCCCCCCCCCCCCCCC)([H])COP(OCC[N+](C)(C)C)([O-])=O
InChI: InChI=1S/C42H84NO8P/c1-6-8-10-12-14-16-18-20-22-24-26-28-30-32-34-41(44)48-38-40(39-50-52(46,47)49-37-36-43(3,4)5)51-42(45)35-33-31-29-27-25-23-21-19-17-15-13-11-9-7-2/h40H,6-39H2,1-5H3/t40-/m1/s1
Instrument: maXis plus UHR-ToF-MS, Bruker Daltonics
Instrument type: LC-ESI-QTOF
Ms type: MS2
Ion mode: POSITIVE
Ionization: ESI
Fragmentation mode: CID
Collision energy: 10
Column name: CORTECS UPLC C18 1.6um, 2.1x150mm, Waters
Retention time: 15.321 min
Base peak: 762.5999
Precursor m/z: 762.6007
Precursor type: [M+H]+
m/z	relative intensity
184.0733	18
762.6009	999
