Mass spectrum: PA(14:0/14:0); LC-ESI-QTOF; MS2; CE: 20; R=; [M+NH4]+
Name: PA(14:0/14:0)
Formula: C31H61O8P
Exact mass: 592.4104
SMILES: CCCCCCCCCCCCCC(=O)OC[C@H](COP(O)(O)=O)OC(=O)CCCCCCCCCCCCC
InChI: InChI=1S/C31H61O8P/c1-3-5-7-9-11-13-15-17-19-21-23-25-30(32)37-27-29(28-38-40(34,35)36)39-31(33)26-24-22-20-18-16-14-12-10-8-6-4-2/h29H,3-28H2,1-2H3,(H2,34,35,36)/t29-/m1/s1
Instrument: maXis plus UHR-ToF-MS, Bruker Daltonics
Instrument type: LC-ESI-QTOF
Ms type: MS2
Ion mode: POSITIVE
Ionization: ESI
Fragmentation mode: CID
Collision energy: 20
Column name: CORTECS UPLC C18 1.6um, 2.1x150mm, Waters
Retention time: 11.365 min
Base peak: 447.3467
Precursor m/z: 610.4442
Precursor type: [M+NH4]+
m/z	relative intensity
208.2133	8
285.2423	11
365.2081	34
434.9729	9
469.325	11
495.4404	999
496.4428	279
497.4458	32
