Mass spectrum: PS(16:0/20:4(5Z,8Z,11Z,14Z)); LC-ESI-QTOF; MS2; CE: 40; R=; [M+H]+
Name: PS(16:0/20:4(5Z,8Z,11Z,14Z))
Formula: C42H74NO10P
Exact mass: 783.5050
SMILES: [H][C@](COP(OC[C@@](COC(CCCCCCCCCCCCCCC)=O)(OC(CCC/C=C\C/C=C\C/C=C\C/C=C\CCCCC)=O)[H])(=O)O)(C(O)=O)N
InChI: InChI=1S/C42H74NO10P/c1-3-5-7-9-11-13-15-17-18-19-20-22-24-26-28-30-32-34-41(45)53-38(36-51-54(48,49)52-37-39(43)42(46)47)35-50-40(44)33-31-29-27-25-23-21-16-14-12-10-8-6-4-2/h11,13,17-18,20,22,26,28,38-39H,3-10,12,14-16,19,21,23-25,27,29-37,43H2,1-2H3,(H,46,47)(H,48,49)/b13-11-,18-17-,22-20-,28-26-/t38-,39+/m1/s1
Instrument: maXis plus UHR-ToF-MS, Bruker Daltonics
Instrument type: LC-ESI-QTOF
Ms type: MS2
Ion mode: POSITIVE
Ionization: ESI
Fragmentation mode: CID
Collision energy: 40
Column name: CORTECS UPLC C18 1.6um, 2.1x150mm, Waters
Retention time: 12.044 min
Base peak: 447.3466
Precursor m/z: 784.5123
Precursor type: [M+H]+
m/z	relative intensity
95.0866	110
97.0659	20
97.1011	32
99.1176	11
105.0705	64
107.0852	29
109.0646	4
109.1016	60
111.1173	14
113.1318	7
115.0757	7
117.0698	22
118.0743	5
118.2634	4
119.086	50
121.0627	7
121.1011	34
122.1066	6
123.0798	15
123.1167	32
125.0966	5
125.1317	17
129.0694	21
131.0871	11
133.1004	49
133.2245	5
135.118	14
137.1325	17
142.0482	5
143.0867	14
145.1027	8
147.1176	14
149.0249	6
151.1493	9
155.0112	29
157.101	8
161.0956	8
161.1339	10
163.1488	10
169.1021	6
171.1223	11
173.1331	6
175.1486	14
185.1315	11
187.1497	20
189.1635	11
199.1473	6
203.1454	5
203.179	70
204.1807	13
219.5	5
221.2253	6
239.2361	47
240.2385	10
241.1937	12
242.1948	7
245.2274	5
257.4272	5
260.0503	6
267.2077	5
269.2255	43
270.2287	7
287.2327	10
288.2801	4
298.9771	5
310.0282	4
311.2596	7
313.273	656
314.2764	110
315.2792	9
326.2694	25
337.2346	5
339.2893	5
343.2604	8
361.273	30
362.2739	14
367.2827	35
368.2895	6
372.0881	5
374.2693	37
375.2752	20
393.2402	40
463.279	5
469.3279	22
480.27	21
530.1108	4
545.2092	4
549.43	5
553.196	6
562.9612	5
571.2626	4
598.9825	5
599.502	999
600.5065	292
601.5082	38
