Mass spectrum: PG(14:0/14:0); LC-ESI-QTOF; MS2; CE: 10; R=; [M+H]+
Name: PG(14:0/14:0)
Formula: C34H67O10P
Exact mass: 666.4472
SMILES: C([C@H](CO)O)OP(=O)(O)OC[C@H](OC(CCCCCCCCCCCCC)=O)COC(CCCCCCCCCCCCC)=O
InChI: InChI=1S/C34H67O10P/c1-3-5-7-9-11-13-15-17-19-21-23-25-33(37)41-29-32(30-43-45(39,40)42-28-31(36)27-35)44-34(38)26-24-22-20-18-16-14-12-10-8-6-4-2/h31-32,35-36H,3-30H2,1-2H3,(H,39,40)/t31-,32+/m0/s1
Instrument: maXis plus UHR-ToF-MS, Bruker Daltonics
Instrument type: LC-ESI-QTOF
Ms type: MS2
Ion mode: POSITIVE
Ionization: ESI
Fragmentation mode: CID
Collision energy: 10
Column name: CORTECS UPLC C18 1.6um, 2.1x150mm, Waters
Retention time: 10.622 min
Base peak: 684.4805
Precursor m/z: 667.4545
Precursor type: [M+H]+
m/z	relative intensity
246.3312	2
285.2422	6
330.0385	2
388.3648	2
403.253	2
415.3964	2
428.048	2
439.2444	5
494.4155	3
495.4408	999
496.4438	262
497.4456	24
498.4597	2
667.4531	37
