Mass spectrum: PA(16:0/18:1(9Z)); LC-ESI-QTOF; MS2; CE: 40; R=; [M+NH4]+
Name: PA(16:0/18:1(9Z))
Formula: C37H71O8P
Exact mass: 674.4887
SMILES: [H][C@@](COC(=O)CCCCCCCCCCCCCCC)(COP(O)(O)=O)OC(=O)CCCCCCC\C=C/CCCCCCCC
InChI: InChI=1S/C37H71O8P/c1-3-5-7-9-11-13-15-17-18-20-22-24-26-28-30-32-37(39)45-35(34-44-46(40,41)42)33-43-36(38)31-29-27-25-23-21-19-16-14-12-10-8-6-4-2/h17-18,35H,3-16,19-34H2,1-2H3,(H2,40,41,42)/b18-17-/t35-/m1/s1
Instrument: maXis plus UHR-ToF-MS, Bruker Daltonics
Instrument type: LC-ESI-QTOF
Ms type: MS2
Ion mode: POSITIVE
Ionization: ESI
Fragmentation mode: CID
Collision energy: 40
Column name: CORTECS UPLC C18 1.6um, 2.1x150mm, Waters
Retention time: 14.120 min
Base peak: 447.3461
Precursor m/z: 692.5225
Precursor type: [M+NH4]+
m/z	relative intensity
95.0863	96
99.1169	27
109.1016	73
111.0814	38
111.1181	52
121.1008	23
123.1166	22
135.1171	49
137.1329	33
155.0098	87
171.1399	31
172.1372	27
239.2343	79
247.2424	35
265.2528	59
313.2728	23
329.1704	22
339.2865	50
393.2365	36
462.0596	18
469.3304	55
470.33	45
577.5178	999
578.5209	310
579.5241	43
