Mass spectrum: PG(16:0/16:0); LC-ESI-QTOF; MS2; CE: 10; R=; [M+H]+
Name: PG(16:0/16:0)
Formula: C38H75O10P
Exact mass: 722.5098
SMILES: CCCCCCCCCCCCCCCC(=O)OC[C@H](COP(O)(=O)OC[C@@H](O)CO)OC(=O)CCCCCCCCCCCCCCC
InChI: InChI=1S/C38H75O10P/c1-3-5-7-9-11-13-15-17-19-21-23-25-27-29-37(41)45-33-36(34-47-49(43,44)46-32-35(40)31-39)48-38(42)30-28-26-24-22-20-18-16-14-12-10-8-6-4-2/h35-36,39-40H,3-34H2,1-2H3,(H,43,44)/t35-,36+/m0/s1
Instrument: maXis plus UHR-ToF-MS, Bruker Daltonics
Instrument type: LC-ESI-QTOF
Ms type: MS2
Ion mode: POSITIVE
Ionization: ESI
Fragmentation mode: CID
Collision energy: 10
Column name: CORTECS UPLC C18 1.6um, 2.1x150mm, Waters
Retention time: 13.305 min
Base peak: 447.3463
Precursor m/z: 723.5171
Precursor type: [M+H]+
m/z	relative intensity
217.1759	43
469.3867	48
551.5016	999
552.5056	234
553.5092	93
