Mass spectrum: PE(18:0/22:6(4Z,7Z,10Z,13Z,16Z,19Z)); LC-ESI-QTOF; MS2; CE: 10; R=; [M+H]+
Name: PE(18:0/22:6(4Z,7Z,10Z,13Z,16Z,19Z))
Formula: C45H78NO8P
Exact mass: 791.5465
SMILES: CCCCCCCCCCCCCCCCCC(=O)OC[C@H](COP(O)(=O)OCCN)OC(=O)CC\C=C/C\C=C/C\C=C/C\C=C/C\C=C/C\C=C/CC
InChI: InChI=1S/C45H78NO8P/c1-3-5-7-9-11-13-15-17-19-20-21-22-24-26-28-30-32-34-36-38-45(48)54-43(42-53-55(49,50)52-40-39-46)41-51-44(47)37-35-33-31-29-27-25-23-18-16-14-12-10-8-6-4-2/h5,7,11,13,17,19,21-22,26,28,32,34,43H,3-4,6,8-10,12,14-16,18,20,23-25,27,29-31,33,35-42,46H2,1-2H3,(H,49,50)/b7-5-,13-11-,19-17-,22-21-,28-26-,34-32-/t43-/m1/s1
Instrument: maXis plus UHR-ToF-MS, Bruker Daltonics
Instrument type: LC-ESI-QTOF
Ms type: MS2
Ion mode: POSITIVE
Ionization: ESI
Fragmentation mode: CID
Collision energy: 10
Column name: CORTECS UPLC C18 1.6um, 2.1x150mm, Waters
Retention time: 14.160 min
Base peak: 792.5522
Precursor m/z: 792.5538
Precursor type: [M+H]+
m/z	relative intensity
99.1175	1
651.5323	44
652.5349	8
653.5422	1
658.165	1
660.4463	1
680.4254	1
741.5409	1
792.5518	999
