Mass spectrum: PA(16:0/22:6(4Z,7Z,10Z,13Z,16Z,19Z)); LC-ESI-QTOF; MS2; CE: 40; R=; [M+NH4]+
Name: PA(16:0/22:6(4Z,7Z,10Z,13Z,16Z,19Z))
Formula: C41H69O8P
Exact mass: 720.4730
SMILES: CCCCCCCCCCCCCCCC(=O)OC[C@H](COP(O)(O)=O)OC(=O)CC\C=C/C\C=C/C\C=C/C\C=C/C\C=C/C\C=C/CC
InChI: InChI=1S/C41H69O8P/c1-3-5-7-9-11-13-15-17-18-19-20-21-22-24-26-28-30-32-34-36-41(43)49-39(38-48-50(44,45)46)37-47-40(42)35-33-31-29-27-25-23-16-14-12-10-8-6-4-2/h5,7,11,13,17-18,20-21,24,26,30,32,39H,3-4,6,8-10,12,14-16,19,22-23,25,27-29,31,33-38H2,1-2H3,(H2,44,45,46)/b7-5-,13-11-,18-17-,21-20-,26-24-,32-30-/t39-/m1/s1
Instrument: maXis plus UHR-ToF-MS, Bruker Daltonics
Instrument type: LC-ESI-QTOF
Ms type: MS2
Ion mode: POSITIVE
Ionization: ESI
Fragmentation mode: CID
Collision energy: 40
Column name: CORTECS UPLC C18 1.6um, 2.1x150mm, Waters
Retention time: 12.446 min
Base peak: 447.3455
Precursor m/z: 738.5068
Precursor type: [M+NH4]+
m/z	relative intensity
97.1022	157
98.9859	156
107.0848	96
114.1736	91
117.0701	141
117.5021	75
119.0857	219
123.1154	91
131.083	187
141.0697	78
143.0851	96
149.0236	247
155.0109	280
158.3745	82
169.0988	141
171.1363	141
173.0204	109
173.1333	124
189.1249	76
195.1245	78
201.1641	82
213.1618	168
223.1488	75
269.2245	133
293.2268	135
311.2312	106
313.2716	432
371.2415	75
393.2381	117
469.3305	139
623.5009	999
624.5078	184
