Mass spectrum: PG(17:0/17:0); LC-ESI-QTOF; MS2; CE: 40; R=; [M+H]+
Name: PG(17:0/17:0)
Formula: C40H79O10P
Exact mass: 750.5411
SMILES: CCCCCCCCCCCCCCCCC(=O)OC[C@H](COP(O)(=O)OC[C@@H](O)CO)OC(=O)CCCCCCCCCCCCCCCC
InChI: InChI=1S/C40H79O10P/c1-3-5-7-9-11-13-15-17-19-21-23-25-27-29-31-39(43)47-35-38(36-49-51(45,46)48-34-37(42)33-41)50-40(44)32-30-28-26-24-22-20-18-16-14-12-10-8-6-4-2/h37-38,41-42H,3-36H2,1-2H3,(H,45,46)/t37-,38+/m0/s1
Instrument: maXis plus UHR-ToF-MS, Bruker Daltonics
Instrument type: LC-ESI-QTOF
Ms type: MS2
Ion mode: POSITIVE
Ionization: ESI
Fragmentation mode: CID
Collision energy: 40
Column name: CORTECS UPLC C18 1.6um, 2.1x150mm, Waters
Retention time: 14.412 min
Base peak: 972.7333
Precursor m/z: 751.5484
Precursor type: [M+H]+
m/z	relative intensity
95.086	130
97.102	157
109.1019	100
111.1153	77
145.1219	77
253.2528	94
254.2526	78
283.2621	73
327.2882	172
469.3268	68
579.5336	999
580.5404	420
