Mass spectrum: PS(14:0/14:0); LC-ESI-QTOF; MS2; CE: 40; R=; [M+H]+
Name: PS(14:0/14:0)
Formula: C34H66NO10P
Exact mass: 679.4424
SMILES: CCCCCCCCCCCCCC(=O)OC[C@H](COP(O)(=O)OC[C@H](N)C(O)=O)OC(=O)CCCCCCCCCCCCC
InChI: InChI=1S/C34H66NO10P/c1-3-5-7-9-11-13-15-17-19-21-23-25-32(36)42-27-30(28-43-46(40,41)44-29-31(35)34(38)39)45-33(37)26-24-22-20-18-16-14-12-10-8-6-4-2/h30-31H,3-29,35H2,1-2H3,(H,38,39)(H,40,41)/t30-,31+/m1/s1
Instrument: maXis plus UHR-ToF-MS, Bruker Daltonics
Instrument type: LC-ESI-QTOF
Ms type: MS2
Ion mode: POSITIVE
Ionization: ESI
Fragmentation mode: CID
Collision energy: 40
Column name: CORTECS UPLC C18 1.6um, 2.1x150mm, Waters
Retention time: 10.420 min
Base peak: 680.449
Precursor m/z: 680.4497
Precursor type: [M+H]+
m/z	relative intensity
95.0864	253
96.0909	11
98.4489	4
99.1172	29
106.05	5
109.1017	105
111.1173	51
111.3828	4
112.1177	4
113.133	22
121.0993	6
123.1169	84
125.1338	7
127.1465	4
137.133	31
151.1478	6
155.0094	26
156.0215	4
173.3321	4
193.1935	21
195.988	5
201.171	4
211.2049	236
212.2075	46
217.0121	4
229.2144	5
285.2412	99
286.2463	11
298.2366	57
299.2392	9
363.3888	4
365.2082	13
447.0033	5
454.1126	4
495.4401	999
496.4443	250
497.4449	19
