Mass spectrum: PE(18:0/20:4(5Z,8Z,11Z,14Z)); LC-ESI-QTOF; MS2; CE: 20; R=; [M+H]+
Name: PE(18:0/20:4(5Z,8Z,11Z,14Z))
Formula: C43H78NO8P
Exact mass: 767.5465
SMILES: CCCCCCCCCCCCCCCCCC(=O)OC[C@H](COP(O)(=O)OCCN)OC(=O)CCC\C=C/C\C=C/C\C=C/C\C=C/CCCCC
InChI: InChI=1S/C43H78NO8P/c1-3-5-7-9-11-13-15-17-19-20-22-24-26-28-30-32-34-36-43(46)52-41(40-51-53(47,48)50-38-37-44)39-49-42(45)35-33-31-29-27-25-23-21-18-16-14-12-10-8-6-4-2/h11,13,17,19,22,24,28,30,41H,3-10,12,14-16,18,20-21,23,25-27,29,31-40,44H2,1-2H3,(H,47,48)/b13-11-,19-17-,24-22-,30-28-/t41-/m1/s1
Instrument: maXis plus UHR-ToF-MS, Bruker Daltonics
Instrument type: LC-ESI-QTOF
Ms type: MS2
Ion mode: POSITIVE
Ionization: ESI
Fragmentation mode: CID
Collision energy: 20
Column name: CORTECS UPLC C18 1.6um, 2.1x150mm, Waters
Retention time: 14.498 min
Base peak: 768.5523
Precursor m/z: 768.5538
Precursor type: [M+H]+
m/z	relative intensity
95.0865	1
121.1017	1
133.1	1
136.1087	1
181.152	1
182.0988	1
192.4214	1
203.1811	1
269.2242	2
270.2299	1
298.1454	1
310.3103	1
311.3097	2
330.279	7
341.305	23
342.3062	2
361.2719	4
383.0507	1
421.2748	1
446.3	5
447.4536	1
448.0245	1
464.3135	7
465.3174	3
466.267	2
475.2867	1
482.323	5
483.3266	2
484.2824	3
502.2914	1
529.3113	1
555.2142	1
588.3612	1
603.1145	1
613.5031	1
623.3575	1
624.1788	1
626.1951	1
626.2786	1
626.5027	1
626.5502	1
626.5882	1
626.9716	1
627.025	1
627.5342	999
628.5371	308
629.5401	44
630.5458	4
693.2039	1
725.5142	1
768.5531	727
