Mass spectrum: PC(16:0/20:4(5Z,8Z,11Z,14Z)); LC-ESI-QTOF; MS2; CE: 40; R=; [M+H]+
Name: PC(16:0/20:4(5Z,8Z,11Z,14Z))
Name: [(2R)-3-hexadecanoyloxy-2-[(5Z,8Z,11Z,14Z)-icosa-5,8,11,14-tetraenoyl]oxypropyl] 2-(trimethylazaniumyl)ethyl phosphate
Formula: C44H80NO8P
Exact mass: 781.5622
SMILES: C(C[N+](C)(C)C)OP(=O)([O-])OC[C@H](OC(CCC/C=C\C/C=C\C/C=C\C/C=C\CCCCC)=O)COC(=O)CCCCCCCCCCCCCCC
InChI: InChI=1S/C44H80NO8P/c1-6-8-10-12-14-16-18-20-21-22-23-25-27-29-31-33-35-37-44(47)53-42(41-52-54(48,49)51-39-38-45(3,4)5)40-50-43(46)36-34-32-30-28-26-24-19-17-15-13-11-9-7-2/h14,16,20-21,23,25,29,31,42H,6-13,15,17-19,22,24,26-28,30,32-41H2,1-5H3/b16-14-,21-20-,25-23-,31-29-/t42-/m1/s1
Instrument: maXis plus UHR-ToF-MS, Bruker Daltonics
Instrument type: LC-ESI-QTOF
Ms type: MS2
Ion mode: POSITIVE
Ionization: ESI
Fragmentation mode: CID
Collision energy: 40
Column name: CORTECS UPLC C18 1.6um, 2.1x150mm, Waters
Retention time: 12.996 min
Base peak: 782.569
Precursor m/z: 782.5694
Precursor type: [M+H]+
m/z	relative intensity
104.1077	19
125.0002	26
166.0628	1
184.0732	999
185.0767	44
478.3289	1
496.34	4
526.3294	1
782.5705	23
