Mass spectrum: PC(18:0/18:0); LC-ESI-QTOF; MS2; CE: 40; R=; [M+H]+
Name: PC(18:0/18:0)
Name: 1,2-Distearoyl-sn-glycero-3-phosphocholine
Name: [(2R)-2,3-di(octadecanoyloxy)propyl] 2-(trimethylazaniumyl)ethyl phosphate
Formula: C44H88NO8P
Exact mass: 789.6248
SMILES: CCCCCCCCCCCCCCCCCC(=O)OC[C@H](COP([O-])(=O)OCC[N+](C)(C)C)OC(=O)CCCCCCCCCCCCCCCCC
InChI: InChI=1S/C44H88NO8P/c1-6-8-10-12-14-16-18-20-22-24-26-28-30-32-34-36-43(46)50-40-42(41-52-54(48,49)51-39-38-45(3,4)5)53-44(47)37-35-33-31-29-27-25-23-21-19-17-15-13-11-9-7-2/h42H,6-41H2,1-5H3/t42-/m1/s1
Instrument: maXis plus UHR-ToF-MS, Bruker Daltonics
Instrument type: LC-ESI-QTOF
Ms type: MS2
Ion mode: POSITIVE
Ionization: ESI
Fragmentation mode: CID
Collision energy: 40
Column name: CORTECS UPLC C18 1.6um, 2.1x150mm, Waters
Retention time: 16.290 min
Base peak: 790.6315
Precursor m/z: 790.632
Precursor type: [M+H]+
m/z	relative intensity
98.9849	1
104.1076	13
124.9998	19
166.0632	1
184.0728	999
186.0771	3
506.3595	3
507.3612	1
524.3704	4
525.3746	1
607.5641	1
790.6312	29
