Mass spectrum: PE(18:0/22:6(4Z,7Z,10Z,13Z,16Z,19Z)); LC-ESI-QTOF; MS2; CE: 40; R=; [M+Na]+
Name: PE(18:0/22:6(4Z,7Z,10Z,13Z,16Z,19Z))
Formula: C45H78NO8P
Exact mass: 791.5465
SMILES: CCCCCCCCCCCCCCCCCC(=O)OC[C@H](COP(O)(=O)OCCN)OC(=O)CC\C=C/C\C=C/C\C=C/C\C=C/C\C=C/C\C=C/CC
InChI: InChI=1S/C45H78NO8P/c1-3-5-7-9-11-13-15-17-19-20-21-22-24-26-28-30-32-34-36-38-45(48)54-43(42-53-55(49,50)52-40-39-46)41-51-44(47)37-35-33-31-29-27-25-23-18-16-14-12-10-8-6-4-2/h5,7,11,13,17,19,21-22,26,28,32,34,43H,3-4,6,8-10,12,14-16,18,20,23-25,27,29-31,33,35-42,46H2,1-2H3,(H,49,50)/b7-5-,13-11-,19-17-,22-21-,28-26-,34-32-/t43-/m1/s1
Instrument: maXis plus UHR-ToF-MS, Bruker Daltonics
Instrument type: LC-ESI-QTOF
Ms type: MS2
Ion mode: POSITIVE
Ionization: ESI
Fragmentation mode: CID
Collision energy: 40
Column name: CORTECS UPLC C18 1.6um, 2.1x150mm, Waters
Retention time: 14.100 min
Base peak: 447.3469
Precursor m/z: 814.5357
Precursor type: [M+Na]+
m/z	relative intensity
120.9665	177
145.9969	38
164.0083	708
171.1379	41
172.143	40
205.0344	41
443.2476	54
469.3283	38
486.1492	40
487.2212	52
488.2315	69
505.2321	48
651.5344	106
652.535	63
673.517	999
674.5182	512
675.527	49
771.49	446
772.4949	167
814.5344	280
