Mass spectrum: PE(16:0/18:2(9Z,12Z)); LC-ESI-QTOF; MS2; CE: 40; R=; [M+H]+
Name: PE(16:0/18:2(9Z,12Z))
Formula: C39H74NO8P
Exact mass: 715.5152
SMILES: [H][C@@](COC(=O)CCCCCCCCCCCCCCC)(COP(O)(=O)OCCN)OC(=O)CCCCCCC\C=C/C\C=C/CCCCC
InChI: InChI=1S/C39H74NO8P/c1-3-5-7-9-11-13-15-17-18-20-22-24-26-28-30-32-39(42)48-37(36-47-49(43,44)46-34-33-40)35-45-38(41)31-29-27-25-23-21-19-16-14-12-10-8-6-4-2/h11,13,17-18,37H,3-10,12,14-16,19-36,40H2,1-2H3,(H,43,44)/b13-11-,18-17-/t37-/m1/s1
Instrument: maXis plus UHR-ToF-MS, Bruker Daltonics
Instrument type: LC-ESI-QTOF
Ms type: MS2
Ion mode: POSITIVE
Ionization: ESI
Fragmentation mode: CID
Collision energy: 40
Column name: CORTECS UPLC C18 1.6um, 2.1x150mm, Waters
Retention time: 13.631 min
Base peak: 716.5204
Precursor m/z: 716.5225
Precursor type: [M+H]+
m/z	relative intensity
95.0858	171
97.0646	3
97.1013	52
99.0807	13
99.117	13
105.07	11
107.0859	20
109.1012	95
111.0799	5
111.1168	19
113.0957	5
113.1325	4
117.0917	1
119.0856	6
121.1009	26
123.117	63
124.0159	1
125.0959	1
125.1326	9
127.1113	2
127.1477	3
129.0914	1
131.0858	1
133.1018	13
135.117	16
137.1329	31
139.1483	3
141.1631	3
147.1173	9
149.1332	10
151.1496	12
152.1529	1
155.0118	1
155.1841	1
157.1827	1
159.1177	1
161.1334	8
162.1375	1
163.1487	11
164.1505	2
165.165	6
167.1418	1
175.1482	11
176.1524	2
177.162	3
178.1662	1
179.144	1
179.1787	1
181.1578	2
189.1639	2
203.1789	1
207.1728	1
209.1538	1
217.1559	1
221.1557	1
221.2256	4
239.2368	63
240.2404	7
245.2257	9
246.23	2
249.184	2
263.2362	61
264.2406	8
282.2788	13
301.2534	1
306.279	29
307.2852	2
313.2724	24
314.2754	4
319.2622	9
320.2669	1
337.2729	26
338.2771	3
393.2396	4
394.2417	1
419.2698	1
436.2811	2
437.283	1
454.2899	1
460.2829	1
483.4604	1
492.5751	1
501.4643	1
532.0769	1
574.197	1
574.2798	1
574.3611	1
574.9648	1
575.5024	999
576.506	322
577.5084	34
578.5168	1
