Mass spectrum: PE(16:0/20:4(5Z,8Z,11Z,14Z)); LC-ESI-QTOF; MS2; CE: 20; R=; [M+H]+
Name: PE(16:0/20:4(5Z,8Z,11Z,14Z))
Formula: C41H74NO8P
Exact mass: 739.5152
SMILES: CCCCCCCCCCCCCCCC(=O)OC[C@H](COP(O)(=O)OCCN)OC(=O)CCC\C=C/C\C=C/C\C=C/C\C=C/CCCCC
InChI: InChI=1S/C41H74NO8P/c1-3-5-7-9-11-13-15-17-18-19-20-22-24-26-28-30-32-34-41(44)50-39(38-49-51(45,46)48-36-35-42)37-47-40(43)33-31-29-27-25-23-21-16-14-12-10-8-6-4-2/h11,13,17-18,20,22,26,28,39H,3-10,12,14-16,19,21,23-25,27,29-38,42H2,1-2H3,(H,45,46)/b13-11-,18-17-,22-20-,28-26-/t39-/m1/s1
Instrument: maXis plus UHR-ToF-MS, Bruker Daltonics
Instrument type: LC-ESI-QTOF
Ms type: MS2
Ion mode: POSITIVE
Ionization: ESI
Fragmentation mode: CID
Collision energy: 20
Column name: CORTECS UPLC C18 1.6um, 2.1x150mm, Waters
Retention time: 13.391 min
Base peak: 740.5214
Precursor m/z: 740.5225
Precursor type: [M+H]+
m/z	relative intensity
95.0867	1
105.0696	1
109.1004	1
119.0861	1
121.1004	1
143.0864	1
203.1798	3
269.2258	4
270.2265	1
272.2482	1
282.2774	1
287.2365	1
313.2738	26
314.2769	1
325.2875	1
330.2785	6
331.2838	1
361.2709	5
362.2773	1
418.2694	2
436.2825	4
437.1935	1
454.2911	8
466.2855	1
484.2815	3
502.2935	1
558.2218	1
589.3719	1
598.0701	1
598.2924	1
598.4237	1
598.4771	1
598.9769	1
599.5027	999
600.5056	315
601.51	38
602.5111	3
740.5211	649
