Mass spectrum: PA(16:0/18:1(9Z)); LC-ESI-QTOF; MS2; CE: 20; R=; [M+NH4]+
Name: PA(16:0/18:1(9Z))
Formula: C37H71O8P
Exact mass: 674.4887
SMILES: [H][C@@](COC(=O)CCCCCCCCCCCCCCC)(COP(O)(O)=O)OC(=O)CCCCCCC\C=C/CCCCCCCC
InChI: InChI=1S/C37H71O8P/c1-3-5-7-9-11-13-15-17-18-20-22-24-26-28-30-32-37(39)45-35(34-44-46(40,41)42)33-43-36(38)31-29-27-25-23-21-19-16-14-12-10-8-6-4-2/h17-18,35H,3-16,19-34H2,1-2H3,(H2,40,41,42)/b18-17-/t35-/m1/s1
Instrument: maXis plus UHR-ToF-MS, Bruker Daltonics
Instrument type: LC-ESI-QTOF
Ms type: MS2
Ion mode: POSITIVE
Ionization: ESI
Fragmentation mode: CID
Collision energy: 20
Column name: CORTECS UPLC C18 1.6um, 2.1x150mm, Waters
Retention time: 14.120 min
Base peak: 447.3461
Precursor m/z: 692.5225
Precursor type: [M+NH4]+
m/z	relative intensity
208.3777	13
265.2503	11
393.239	32
413.0205	11
419.2555	25
447.3477	16
469.3289	97
470.3325	23
471.3332	13
517.3728	12
573.3646	14
577.5192	999
578.5217	315
579.5264	57
675.498	35
692.5198	19
