Mass spectrum: PE(14:0/14:0); LC-ESI-QTOF; MS2; CE: 40; R=; [M+H]+
Name: PE(14:0/14:0)
Formula: C33H66NO8P
Exact mass: 635.4526
SMILES: [H][C@@](COC(=O)CCCCCCCCCCCCC)(COP(O)(=O)OCCN)OC(=O)CCCCCCCCCCCCC
InChI: InChI=1S/C33H66NO8P/c1-3-5-7-9-11-13-15-17-19-21-23-25-32(35)39-29-31(30-41-43(37,38)40-28-27-34)42-33(36)26-24-22-20-18-16-14-12-10-8-6-4-2/h31H,3-30,34H2,1-2H3,(H,37,38)/t31-/m1/s1
Instrument: maXis plus UHR-ToF-MS, Bruker Daltonics
Instrument type: LC-ESI-QTOF
Ms type: MS2
Ion mode: POSITIVE
Ionization: ESI
Fragmentation mode: CID
Collision energy: 40
Column name: CORTECS UPLC C18 1.6um, 2.1x150mm, Waters
Retention time: 11.969 min
Base peak: 636.4591
Precursor m/z: 636.4599
Precursor type: [M+H]+
m/z	relative intensity
95.086	468
97.1017	162
99.0816	7
99.117	54
109.1012	239
111.1169	111
113.0958	1
113.1324	21
114.0539	1
117.0913	1
118.3108	1
121.1024	1
123.1169	127
124.0162	2
125.1328	7
127.1485	6
129.1261	1
137.1327	65
143.1441	1
151.1487	9
155.0119	8
155.1431	1
157.1999	1
158.1895	1
179.1647	1
188.5034	1
192.187	1
193.1946	25
197.0307	1
198.0528	1
211.2053	256
212.2088	33
229.2148	1
254.2474	60
255.2509	9
267.2339	1
285.2419	59
286.2462	6
314.3696	1
320.146	1
365.2072	2
390.2371	3
391.2421	1
448.4649	1
449.5018	1
464.1732	1
468.2886	1
483.0983	1
494.126	1
494.457	1
494.93	1
495.4399	999
496.4438	246
496.9693	1
497.0068	1
497.4474	18
