Mass spectrum: PG(18:0/18:0); LC-ESI-QTOF; MS2; CE: 40; R=; [M+H]+
Name: PG(18:0/18:0)
Formula: C42H83O10P
Exact mass: 778.5724
SMILES: CCCCCCCCCCCCCCCCCC(=O)OC[C@H](COP(O)(=O)OC[C@@H](O)CO)OC(=O)CCCCCCCCCCCCCCCCC
InChI: InChI=1S/C42H83O10P/c1-3-5-7-9-11-13-15-17-19-21-23-25-27-29-31-33-41(45)49-37-40(38-51-53(47,48)50-36-39(44)35-43)52-42(46)34-32-30-28-26-24-22-20-18-16-14-12-10-8-6-4-2/h39-40,43-44H,3-38H2,1-2H3,(H,47,48)/t39-,40+/m0/s1
Instrument: maXis plus UHR-ToF-MS, Bruker Daltonics
Instrument type: LC-ESI-QTOF
Ms type: MS2
Ion mode: POSITIVE
Ionization: ESI
Fragmentation mode: CID
Collision energy: 40
Column name: CORTECS UPLC C18 1.6um, 2.1x150mm, Waters
Retention time: 15.367 min
Base peak: 447.3471
Precursor m/z: 779.5797
Precursor type: [M+H]+
m/z	relative intensity
95.0857	208
97.1021	248
133.086	110
149.0235	84
171.1396	445
306.0115	82
343.2474	87
607.5665	999
608.5684	383
609.5671	110
