Mass spectrum: PG(16:0/20:4(5Z,8Z,11Z,14Z)); LC-ESI-QTOF; MS2; CE: 40; R=; [M+Na]+
Name: PG(16:0/20:4(5Z,8Z,11Z,14Z))
Formula: C42H75O10P
Exact mass: 770.5098
SMILES: CCCCCCCCCCCCCCCC(=O)OC[C@H](COP(O)(=O)OC[C@@H](O)CO)OC(=O)CCC\C=C/C\C=C/C\C=C/C\C=C/CCCCC
InChI: InChI=1S/C42H75O10P/c1-3-5-7-9-11-13-15-17-18-19-20-22-24-26-28-30-32-34-42(46)52-40(38-51-53(47,48)50-36-39(44)35-43)37-49-41(45)33-31-29-27-25-23-21-16-14-12-10-8-6-4-2/h11,13,17-18,20,22,26,28,39-40,43-44H,3-10,12,14-16,19,21,23-25,27,29-38H2,1-2H3,(H,47,48)/b13-11-,18-17-,22-20-,28-26-/t39-,40+/m0/s1
Instrument: maXis plus UHR-ToF-MS, Bruker Daltonics
Instrument type: LC-ESI-QTOF
Ms type: MS2
Ion mode: POSITIVE
Ionization: ESI
Fragmentation mode: CID
Collision energy: 40
Column name: CORTECS UPLC C18 1.6um, 2.1x150mm, Waters
Retention time: 12.170 min
Base peak: 447.3465
Precursor m/z: 793.499
Precursor type: [M+Na]+
m/z	relative intensity
97.065	26
154.0051	19
195.0027	999
196.0041	27
239.238	23
247.026	19
313.2724	123
314.2782	24
537.2616	23
572.006	20
599.5021	136
600.5052	91
601.5105	91
602.5104	79
603.5161	24
621.485	266
622.49	97
639.4993	30
793.4968	93
