Mass spectrum: PC(16:0/22:6(4Z,7Z,10Z,13Z,16Z,19Z)); LC-ESI-QTOF; MS2; CE: 40; R=; [M+Na]+
Name: PC(16:0/22:6(4Z,7Z,10Z,13Z,16Z,19Z))
Name: 1-Palmitoyl-2-docosahexaenoyl-sn-glycero-3-phosphocholine
Name: [(2R)-2-[(4Z,7Z,10Z,13Z,16Z,19Z)-docosa-4,7,10,13,16,19-hexaenoyl]oxy-3-hexadecanoyloxypropyl] 2-(trimethylazaniumyl)ethyl phosphate
Formula: C46H80NO8P
Exact mass: 805.5622
SMILES: CCCCCCCCCCCCCCCC(=O)OC[C@H](COP([O-])(=O)OCC[N+](C)(C)C)OC(=O)CC\C=C/C\C=C/C\C=C/C\C=C/C\C=C/C\C=C/CC
InChI: InChI=1S/C46H80NO8P/c1-6-8-10-12-14-16-18-20-21-22-23-24-25-27-29-31-33-35-37-39-46(49)55-44(43-54-56(50,51)53-41-40-47(3,4)5)42-52-45(48)38-36-34-32-30-28-26-19-17-15-13-11-9-7-2/h8,10,14,16,20-21,23-24,27,29,33,35,44H,6-7,9,11-13,15,17-19,22,25-26,28,30-32,34,36-43H2,1-5H3/b10-8-,16-14-,21-20-,24-23-,29-27-,35-33-/t44-/m1/s1
Instrument: maXis plus UHR-ToF-MS, Bruker Daltonics
Instrument type: LC-ESI-QTOF
Ms type: MS2
Ion mode: POSITIVE
Ionization: ESI
Fragmentation mode: CID
Collision energy: 40
Column name: CORTECS UPLC C18 1.6um, 2.1x150mm, Waters
Retention time: 12.674 min
Base peak: 806.5676
Precursor m/z: 828.5514
Precursor type: [M+Na]+
m/z	relative intensity
113.2601	29
133.0848	40
146.9814	394
164.9908	45
184.0738	70
245.952	32
478.3295	46
513.235	40
623.4989	79
645.4833	999
646.4885	388
647.4918	42
769.4771	654
770.4775	243
771.4828	65
828.5492	376
