Mass spectrum: PE(14:0/14:0); LC-ESI-QTOF; MS2; CE: 10; R=; [M+Na]+
Name: PE(14:0/14:0)
Formula: C33H66NO8P
Exact mass: 635.4526
SMILES: [H][C@@](COC(=O)CCCCCCCCCCCCC)(COP(O)(=O)OCCN)OC(=O)CCCCCCCCCCCCC
InChI: InChI=1S/C33H66NO8P/c1-3-5-7-9-11-13-15-17-19-21-23-25-32(35)39-29-31(30-41-43(37,38)40-28-27-34)42-33(36)26-24-22-20-18-16-14-12-10-8-6-4-2/h31H,3-30,34H2,1-2H3,(H,37,38)/t31-/m1/s1
Instrument: maXis plus UHR-ToF-MS, Bruker Daltonics
Instrument type: LC-ESI-QTOF
Ms type: MS2
Ion mode: POSITIVE
Ionization: ESI
Fragmentation mode: CID
Collision energy: 10
Column name: CORTECS UPLC C18 1.6um, 2.1x150mm, Waters
Retention time: 11.960 min
Base peak: 636.4601
Precursor m/z: 658.4418
Precursor type: [M+Na]+
m/z	relative intensity
164.0108	13
169.1275	8
483.3677	50
484.37	9
539.4404	23
540.4319	9
658.4415	999
