Mass spectrum: PG(16:0/18:1(9Z)); LC-ESI-QTOF; MS2; CE: 40; R=; [M+Na]+
Name: PG(16:0/18:1(9Z))
Formula: C40H77O10P
Exact mass: 748.5254
SMILES: CCCCCCCCCCCCCCCC(=O)OC[C@H](COP(O)(=O)OC[C@@H](O)CO)OC(=O)CCCCCCC\C=C/CCCCCCCC
InChI: InChI=1S/C40H77O10P/c1-3-5-7-9-11-13-15-17-18-20-22-24-26-28-30-32-40(44)50-38(36-49-51(45,46)48-34-37(42)33-41)35-47-39(43)31-29-27-25-23-21-19-16-14-12-10-8-6-4-2/h17-18,37-38,41-42H,3-16,19-36H2,1-2H3,(H,45,46)/b18-17-/t37-,38+/m0/s1
Instrument: maXis plus UHR-ToF-MS, Bruker Daltonics
Instrument type: LC-ESI-QTOF
Ms type: MS2
Ion mode: POSITIVE
Ionization: ESI
Fragmentation mode: CID
Collision energy: 40
Column name: CORTECS UPLC C18 1.6um, 2.1x150mm, Waters
Retention time: 13.364 min
Base peak: 766.5583
Precursor m/z: 771.5147
Precursor type: [M+Na]+
m/z	relative intensity
97.1003	9
99.117	7
101.0602	8
107.0864	7
111.1149	8
116.5082	7
133.0859	7
135.1176	8
149.0239	17
159.5119	6
162.0202	6
171.1389	10
176.9695	8
176.9929	21
189.122	7
195.0029	999
196.0087	37
197.0082	7
239.2389	8
241.1028	7
248.2471	8
265.2493	11
267.2577	8
325.1035	6
325.2278	16
326.2292	6
340.2914	7
507.2697	13
515.2748	13
516.2758	7
577.5192	80
578.5198	83
579.5276	49
580.5263	92
581.5264	33
599.4998	85
617.5015	7
618.5082	7
771.5146	57
