Mass spectrum: PE(16:0/20:4(5Z,8Z,11Z,14Z)); LC-ESI-QTOF; MS2; CE: 40; R=; [M+H]+
Name: PE(16:0/20:4(5Z,8Z,11Z,14Z))
Formula: C41H74NO8P
Exact mass: 739.5152
SMILES: CCCCCCCCCCCCCCCC(=O)OC[C@H](COP(O)(=O)OCCN)OC(=O)CCC\C=C/C\C=C/C\C=C/C\C=C/CCCCC
InChI: InChI=1S/C41H74NO8P/c1-3-5-7-9-11-13-15-17-18-19-20-22-24-26-28-30-32-34-41(44)50-39(38-49-51(45,46)48-36-35-42)37-47-40(43)33-31-29-27-25-23-21-16-14-12-10-8-6-4-2/h11,13,17-18,20,22,26,28,39H,3-10,12,14-16,19,21,23-25,27,29-38,42H2,1-2H3,(H,45,46)/b13-11-,18-17-,22-20-,28-26-/t39-/m1/s1
Instrument: maXis plus UHR-ToF-MS, Bruker Daltonics
Instrument type: LC-ESI-QTOF
Ms type: MS2
Ion mode: POSITIVE
Ionization: ESI
Fragmentation mode: CID
Collision energy: 40
Column name: CORTECS UPLC C18 1.6um, 2.1x150mm, Waters
Retention time: 13.391 min
Base peak: 740.5214
Precursor m/z: 740.5225
Precursor type: [M+H]+
m/z	relative intensity
95.086	229
97.0654	20
97.1018	55
98.985	1
99.1176	25
101.0603	2
101.9978	1
103.075	2
105.0702	61
107.0856	54
109.1012	89
111.0802	4
111.1169	12
113.1328	9
114.2337	1
116.0668	1
117.0699	40
119.0857	106
121.1013	44
123.0807	18
123.1171	41
124.0148	3
125.096	9
125.1322	10
126.1338	1
127.1477	4
128.1505	1
129.056	1
129.0692	14
131.0858	35
133.1016	73
135.0809	3
135.1171	20
136.1214	1
137.0968	2
137.1334	30
139.0724	1
139.1129	2
139.1485	3
141.0713	2
141.1626	3
141.9894	1
143.0575	1
143.0858	13
145.1014	18
147.0811	3
147.1174	34
148.1213	2
148.4994	1
149.0968	4
149.1323	10
150.4799	1
150.5121	1
151.1118	1
151.1482	8
153.0877	1
153.1259	2
153.1626	2
155.0107	6
155.9608	1
156.2933	2
157.1012	22
160.3841	1
161.0963	3
161.1327	18
163.1479	11
167.1694	1
169.1773	1
169.1953	2
170.9945	1
171.1167	19
172.1192	5
173.1304	4
173.1708	1
173.4426	1
175.0627	1
175.1124	3
175.1488	11
176.1508	1
176.348	1
177.0512	1
177.1263	1
177.1628	6
178.4754	1
179.1783	2
180.1832	1
182.1967	1
183.1188	1
185.1325	11
187.1128	3
187.1483	6
188.1159	1
189.1272	3
189.1625	10
190.1723	1
191.1073	1
191.181	2
192.0447	1
193.123	1
195.1187	2
195.4966	1
196.9799	2
197.1285	1
198.0546	1
199.1478	11
199.2189	1
199.2404	1
200.1535	1
201.1643	14
201.196	1
202.1697	1
203.1792	100
204.1818	15
204.3483	1
205.1933	3
205.2412	1
206.3743	1
206.5128	1
207.2633	1
209.2191	1
213.0934	1
213.1636	3
215.0433	2
215.178	5
216.0651	2
216.1807	1
217.1238	1
217.1606	1
217.1923	1
218.1982	1
221.2253	7
222.2266	1
225.0809	1
227.1794	3
228.1859	1
229.1954	2
230.1014	1
230.1934	1
230.4336	1
233.1883	1
234.4987	1
237.3213	1
237.5621	2
239.2364	95
240.2395	12
241.1937	4
241.2437	1
241.3766	1
242.1961	2
243.2087	1
247.1899	1
251.438	1
257.2464	8
258.2473	2
259.2043	2
259.2397	2
263.0167	1
265.5801	2
267.2092	2
269.2261	34
270.2285	7
271.2424	4
275.2635	1
276.2651	2
279.9915	1
282.2779	20
283.2149	1
283.2825	2
287.205	1
287.2352	8
287.4125	1
288.24	2
290.0389	1
293.1528	1
295.2603	1
297.2761	3
301.2192	1
303.1664	1
307.242	2
307.3873	1
311.2324	1
311.258	14
312.2573	1
313.273	884
314.2771	128
315.2342	1
315.2794	8
325.0644	1
325.2531	2
330.2784	52
331.2825	11
343.2623	9
344.2686	1
359.2596	2
361.2739	30
362.2784	2
367.2842	41
368.2871	9
369.2865	2
379.3199	3
393.2413	8
399.5189	1
407.3126	2
411.1109	1
418.2791	2
435.3473	2
436.282	6
436.3523	2
454.1759	1
454.2872	4
455.0881	1
470.3596	1
477.1727	1
520.0223	1
539.3106	1
545.23	1
545.4597	1
545.5355	1
550.0742	1
576.3883	1
579.1981	1
593.5145	1
594.4808	1
598.1486	1
598.1736	1
598.1957	1
598.2579	1
598.327	1
598.3668	1
598.4883	2
598.5115	2
599.5029	999
600.5067	356
601.5103	44
602.5161	3
642.5496	2
