Mass spectrum: PG(16:0/18:2(9Z,12Z)); LC-ESI-QTOF; MS2; CE: 40; R=; [M+Na]+
Name: PG(16:0/18:2(9Z,12Z))
Formula: C40H75O10P
Exact mass: 746.5098
SMILES: CCCCCCCCCCCCCCCC(=O)OC[C@H](COP(O)(=O)OC[C@@H](O)CO)OC(=O)CCCCCCC\C=C/C\C=C/CCCCC
InChI: InChI=1S/C40H75O10P/c1-3-5-7-9-11-13-15-17-18-20-22-24-26-28-30-32-40(44)50-38(36-49-51(45,46)48-34-37(42)33-41)35-47-39(43)31-29-27-25-23-21-19-16-14-12-10-8-6-4-2/h11,13,17-18,37-38,41-42H,3-10,12,14-16,19-36H2,1-2H3,(H,45,46)/b13-11-,18-17-/t37-,38+/m0/s1
Instrument: maXis plus UHR-ToF-MS, Bruker Daltonics
Instrument type: LC-ESI-QTOF
Ms type: MS2
Ion mode: POSITIVE
Ionization: ESI
Fragmentation mode: CID
Collision energy: 40
Column name: CORTECS UPLC C18 1.6um, 2.1x150mm, Waters
Retention time: 12.404 min
Base peak: 447.3473
Precursor m/z: 769.499
Precursor type: [M+Na]+
m/z	relative intensity
95.0863	34
97.1013	22
109.1012	17
149.0238	34
167.035	25
172.22	15
177.2547	12
188.0588	12
195.0028	999
196.0078	17
239.2318	13
263.2309	12
285.5465	12
338.2753	15
507.2653	16
575.5043	162
576.5059	69
577.5082	39
578.5103	75
597.4837	91
598.4846	46
769.5001	51
