Mass spectrum: PE(14:0/14:0); LC-ESI-QTOF; MS2; CE: 40; R=; [M+Na]+
Name: PE(14:0/14:0)
Formula: C33H66NO8P
Exact mass: 635.4526
SMILES: [H][C@@](COC(=O)CCCCCCCCCCCCC)(COP(O)(=O)OCCN)OC(=O)CCCCCCCCCCCCC
InChI: InChI=1S/C33H66NO8P/c1-3-5-7-9-11-13-15-17-19-21-23-25-32(35)39-29-31(30-41-43(37,38)40-28-27-34)42-33(36)26-24-22-20-18-16-14-12-10-8-6-4-2/h31H,3-30,34H2,1-2H3,(H,37,38)/t31-/m1/s1
Instrument: maXis plus UHR-ToF-MS, Bruker Daltonics
Instrument type: LC-ESI-QTOF
Ms type: MS2
Ion mode: POSITIVE
Ionization: ESI
Fragmentation mode: CID
Collision energy: 40
Column name: CORTECS UPLC C18 1.6um, 2.1x150mm, Waters
Retention time: 11.960 min
Base peak: 636.4601
Precursor m/z: 658.4418
Precursor type: [M+Na]+
m/z	relative intensity
95.0865	190
97.0655	22
97.1021	41
99.1166	50
109.1006	62
120.9664	844
133.0849	24
138.9767	74
141.1275	157
142.124	22
145.9989	83
164.0091	999
182.0227	35
211.2063	136
260.086	29
283.1183	26
307.2232	22
343.2471	83
349.0408	24
357.2707	25
360.0728	24
387.1921	91
388.1892	43
399.3113	24
405.2031	60
466.1305	22
483.3386	28
483.3687	543
484.3745	139
485.3732	26
495.4406	725
496.445	273
497.4453	44
517.4225	617
518.4253	204
519.4276	27
535.4305	38
539.429	194
540.4358	76
615.3986	64
616.4029	32
658.4416	34
