Mass spectrum: PE(14:0/14:0); LC-ESI-QTOF; MS2; CE: 20; R=; [M+H]+
Name: PE(14:0/14:0)
Formula: C33H66NO8P
Exact mass: 635.4526
SMILES: [H][C@@](COC(=O)CCCCCCCCCCCCC)(COP(O)(=O)OCCN)OC(=O)CCCCCCCCCCCCC
InChI: InChI=1S/C33H66NO8P/c1-3-5-7-9-11-13-15-17-19-21-23-25-32(35)39-29-31(30-41-43(37,38)40-28-27-34)42-33(36)26-24-22-20-18-16-14-12-10-8-6-4-2/h31H,3-30,34H2,1-2H3,(H,37,38)/t31-/m1/s1
Instrument: maXis plus UHR-ToF-MS, Bruker Daltonics
Instrument type: LC-ESI-QTOF
Ms type: MS2
Ion mode: POSITIVE
Ionization: ESI
Fragmentation mode: CID
Collision energy: 20
Column name: CORTECS UPLC C18 1.6um, 2.1x150mm, Waters
Retention time: 11.969 min
Base peak: 636.4591
Precursor m/z: 636.4599
Precursor type: [M+H]+
m/z	relative intensity
95.0865	1
211.2056	3
254.2474	8
285.2415	6
390.2388	2
408.2511	6
409.2526	1
426.2601	6
427.2662	2
494.4377	1
494.9363	1
495.4405	999
496.4434	271
497.4473	21
498.4473	1
636.459	123
