Mass spectrum: PE(16:0/22:6(4Z,7Z,10Z,13Z,16Z,19Z)); LC-ESI-QTOF; MS2; CE: 20; R=; [M+H]+
Name: PE(16:0/22:6(4Z,7Z,10Z,13Z,16Z,19Z))
Formula: C43H74NO8P
Exact mass: 763.5152
SMILES: CCCCCCCCCCCCCCCC(=O)OC[C@H](COP(O)(=O)OCCN)OC(=O)CC\C=C/C\C=C/C\C=C/C\C=C/C\C=C/C\C=C/CC
InChI: InChI=1S/C43H74NO8P/c1-3-5-7-9-11-13-15-17-18-19-20-21-22-24-26-28-30-32-34-36-43(46)52-41(40-51-53(47,48)50-38-37-44)39-49-42(45)35-33-31-29-27-25-23-16-14-12-10-8-6-4-2/h5,7,11,13,17-18,20-21,24,26,30,32,41H,3-4,6,8-10,12,14-16,19,22-23,25,27-29,31,33-40,44H2,1-2H3,(H,47,48)/b7-5-,13-11-,18-17-,21-20-,26-24-,32-30-/t41-/m1/s1
Instrument: maXis plus UHR-ToF-MS, Bruker Daltonics
Instrument type: LC-ESI-QTOF
Ms type: MS2
Ion mode: POSITIVE
Ionization: ESI
Fragmentation mode: CID
Collision energy: 20
Column name: CORTECS UPLC C18 1.6um, 2.1x150mm, Waters
Retention time: 12.991 min
Base peak: 764.5217
Precursor m/z: 764.5225
Precursor type: [M+H]+
m/z	relative intensity
105.0706	2
115.055	1
124.0159	1
227.1768	1
282.2783	2
293.2255	1
313.2729	3
354.2784	6
355.2806	2
385.2741	3
393.2365	1
394.2405	1
418.2704	1
436.2802	3
453.0367	1
454.2921	5
475.2308	1
485.0193	1
485.4575	1
508.282	4
509.2797	1
525.4968	1
526.293	1
584.5649	1
599.3087	1
610.008	1
622.3062	1
622.5112	1
622.5388	1
622.9787	1
623.5031	999
624.5065	314
625.5089	38
626.5082	1
627.1275	1
764.5211	936
