Mass spectrum: PE(18:0/18:0); LC-ESI-QTOF; MS2; CE: 40; R=; [M+H]+
Name: PE(18:0/18:0)
Formula: C41H82NO8P
Exact mass: 747.5778
SMILES: CCCCCCCCCCCCCCCCCC(=O)OCC(COP(O)(=O)OCCN)OC(=O)CCCCCCCCCCCCCCCCC
InChI: InChI=1S/C41H82NO8P/c1-3-5-7-9-11-13-15-17-19-21-23-25-27-29-31-33-40(43)47-37-39(38-49-51(45,46)48-36-35-42)50-41(44)34-32-30-28-26-24-22-20-18-16-14-12-10-8-6-4-2/h39H,3-38,42H2,1-2H3,(H,45,46)
Instrument: maXis plus UHR-ToF-MS, Bruker Daltonics
Instrument type: LC-ESI-QTOF
Ms type: MS2
Ion mode: POSITIVE
Ionization: ESI
Fragmentation mode: CID
Collision energy: 40
Column name: CORTECS UPLC C18 1.6um, 2.1x150mm, Waters
Retention time: 16.440 min
Base peak: 1056.826
Precursor m/z: 748.5851
Precursor type: [M+H]+
m/z	relative intensity
145.1226	215
183.1113	198
607.5644	999
608.5656	443
