Mass spectrum: PC(20:0/20:0); LC-ESI-QTOF; MS2; CE: 10; R=; [M+H]+
Name: PC(20:0/20:0)
Name: 1,2-Diarachidoyl-sn-glycero-3-phosphocholine
Name: [(2R)-2,3-di(icosanoyloxy)propyl] 2-(trimethylazaniumyl)ethyl phosphate
Formula: C48H96NO8P
Exact mass: 845.6874
SMILES: CCCCCCCCCCCCCCCCCCCC(=O)OC[C@H](COP([O-])(=O)OCC[N+](C)(C)C)OC(=O)CCCCCCCCCCCCCCCCCCC
InChI: InChI=1S/C48H96NO8P/c1-6-8-10-12-14-16-18-20-22-24-26-28-30-32-34-36-38-40-47(50)54-44-46(45-56-58(52,53)55-43-42-49(3,4)5)57-48(51)41-39-37-35-33-31-29-27-25-23-21-19-17-15-13-11-9-7-2/h46H,6-45H2,1-5H3/t46-/m1/s1
Instrument: maXis plus UHR-ToF-MS, Bruker Daltonics
Instrument type: LC-ESI-QTOF
Ms type: MS2
Ion mode: POSITIVE
Ionization: ESI
Fragmentation mode: CID
Collision energy: 10
Column name: CORTECS UPLC C18 1.6um, 2.1x150mm, Waters
Retention time: 17.834 min
Base peak: 846.6926
Precursor m/z: 846.6946
Precursor type: [M+H]+
m/z	relative intensity
184.0735	13
846.6935	999
