Mass spectrum: PG(16:0/18:1(9Z)); LC-ESI-QTOF; MS2; CE: 20; R=; [M+Na]+
Name: PG(16:0/18:1(9Z))
Formula: C40H77O10P
Exact mass: 748.5254
SMILES: CCCCCCCCCCCCCCCC(=O)OC[C@H](COP(O)(=O)OC[C@@H](O)CO)OC(=O)CCCCCCC\C=C/CCCCCCCC
InChI: InChI=1S/C40H77O10P/c1-3-5-7-9-11-13-15-17-18-20-22-24-26-28-30-32-40(44)50-38(36-49-51(45,46)48-34-37(42)33-41)35-47-39(43)31-29-27-25-23-21-19-16-14-12-10-8-6-4-2/h17-18,37-38,41-42H,3-16,19-36H2,1-2H3,(H,45,46)/b18-17-/t37-,38+/m0/s1
Instrument: maXis plus UHR-ToF-MS, Bruker Daltonics
Instrument type: LC-ESI-QTOF
Ms type: MS2
Ion mode: POSITIVE
Ionization: ESI
Fragmentation mode: CID
Collision energy: 20
Column name: CORTECS UPLC C18 1.6um, 2.1x150mm, Waters
Retention time: 13.364 min
Base peak: 766.5583
Precursor m/z: 771.5147
Precursor type: [M+Na]+
m/z	relative intensity
195.0022	82
325.2291	18
469.3247	28
470.3297	9
487.3053	11
507.2689	9
577.5197	30
578.5225	82
579.5241	139
580.5281	106
581.5297	34
599.5007	10
630.3941	10
771.5135	999
