Mass spectrum: PC(16:0/16:0); LC-ESI-QTOF; MS2; CE: 40; R=; [M+H]+
Name: PC(16:0/16:0)
Name: Colfosceril palmitate
Name: [(2R)-2,3-di(hexadecanoyloxy)propyl] 2-(trimethylazaniumyl)ethyl phosphate
Formula: C40H80NO8P
Exact mass: 733.5622
SMILES: CCCCCCCCCCCCCCCC(=O)OC[C@H](COP([O-])(=O)OCC[N+](C)(C)C)OC(=O)CCCCCCCCCCCCCCC
InChI: InChI=1S/C40H80NO8P/c1-6-8-10-12-14-16-18-20-22-24-26-28-30-32-39(42)46-36-38(37-48-50(44,45)47-35-34-41(3,4)5)49-40(43)33-31-29-27-25-23-21-19-17-15-13-11-9-7-2/h38H,6-37H2,1-5H3/t38-/m1/s1
Instrument: maXis plus UHR-ToF-MS, Bruker Daltonics
Instrument type: LC-ESI-QTOF
Ms type: MS2
Ion mode: POSITIVE
Ionization: ESI
Fragmentation mode: CID
Collision energy: 40
Column name: CORTECS UPLC C18 1.6um, 2.1x150mm, Waters
Retention time: 14.180 min
Base peak: 734.5671
Precursor m/z: 734.5694
Precursor type: [M+H]+
m/z	relative intensity
98.9841	1
104.1072	18
124.9998	28
166.0623	1
184.0731	999
478.3278	2
496.339	4
497.3424	1
551.5006	1
734.5685	11
