Mass spectrum: PG(14:0/14:0); LC-ESI-QTOF; MS2; CE: 20; R=; [M+H]+
Name: PG(14:0/14:0)
Formula: C34H67O10P
Exact mass: 666.4472
SMILES: C([C@H](CO)O)OP(=O)(O)OC[C@H](OC(CCCCCCCCCCCCC)=O)COC(CCCCCCCCCCCCC)=O
InChI: InChI=1S/C34H67O10P/c1-3-5-7-9-11-13-15-17-19-21-23-25-33(37)41-29-32(30-43-45(39,40)42-28-31(36)27-35)44-34(38)26-24-22-20-18-16-14-12-10-8-6-4-2/h31-32,35-36H,3-30H2,1-2H3,(H,39,40)/t31-,32+/m0/s1
Instrument: maXis plus UHR-ToF-MS, Bruker Daltonics
Instrument type: LC-ESI-QTOF
Ms type: MS2
Ion mode: POSITIVE
Ionization: ESI
Fragmentation mode: CID
Collision energy: 20
Column name: CORTECS UPLC C18 1.6um, 2.1x150mm, Waters
Retention time: 10.622 min
Base peak: 684.4805
Precursor m/z: 667.4545
Precursor type: [M+H]+
m/z	relative intensity
223.4573	2
272.0997	2
283.9717	2
285.2429	35
286.2474	2
295.0068	2
322.4392	2
338.1948	2
364.1873	1
377.0044	2
398.3783	2
407.2388	2
410.9593	2
412.9785	2
421.2331	2
422.2397	3
437.3172	2
439.2434	2
450.2542	1
459.4324	2
466.1338	2
471.0444	2
495.4409	999
496.4435	275
497.446	37
