Mass spectrum: PA(16:0/20:4(5Z,8Z,11Z,14Z)); LC-ESI-QTOF; MS2; CE: 20; R=; [M+NH4]+
Name: PA(16:0/20:4(5Z,8Z,11Z,14Z))
Formula: C39H69O8P
Exact mass: 696.4730
SMILES: CCCCCCCCCCCCCCCC(=O)OC[C@H](COP(O)(O)=O)OC(=O)CCC\C=C/C\C=C/C\C=C/C\C=C/CCCCC
InChI: InChI=1S/C39H69O8P/c1-3-5-7-9-11-13-15-17-18-19-20-22-24-26-28-30-32-34-39(41)47-37(36-46-48(42,43)44)35-45-38(40)33-31-29-27-25-23-21-16-14-12-10-8-6-4-2/h11,13,17-18,20,22,26,28,37H,3-10,12,14-16,19,21,23-25,27,29-36H2,1-2H3,(H2,42,43,44)/b13-11-,18-17-,22-20-,28-26-/t37-/m1/s1
Instrument: maXis plus UHR-ToF-MS, Bruker Daltonics
Instrument type: LC-ESI-QTOF
Ms type: MS2
Ion mode: POSITIVE
Ionization: ESI
Fragmentation mode: CID
Collision energy: 20
Column name: CORTECS UPLC C18 1.6um, 2.1x150mm, Waters
Retention time: 12.866 min
Base peak: 447.3462
Precursor m/z: 714.5068
Precursor type: [M+NH4]+
m/z	relative intensity
190.1648	73
213.4228	52
269.227	87
270.3094	61
287.2352	187
313.2732	72
389.2705	58
393.239	143
395.2844	55
469.3294	249
539.4299	90
599.5029	999
600.5034	362
697.4815	204
698.4851	83
