Mass spectrum: PG(15:0/15:0); LC-ESI-QTOF; MS2; CE: 40; R=; [M+Na]+
Name: PG(15:0/15:0)
Formula: C36H71O10P
Exact mass: 694.4785
SMILES: CCCCCCCCCCCCCCC(=O)OC[C@H](COP(O)(=O)OC[C@@H](O)CO)OC(=O)CCCCCCCCCCCCCC
InChI: InChI=1S/C36H71O10P/c1-3-5-7-9-11-13-15-17-19-21-23-25-27-35(39)43-31-34(32-45-47(41,42)44-30-33(38)29-37)46-36(40)28-26-24-22-20-18-16-14-12-10-8-6-4-2/h33-34,37-38H,3-32H2,1-2H3,(H,41,42)/t33-,34+/m0/s1
Instrument: maXis plus UHR-ToF-MS, Bruker Daltonics
Instrument type: LC-ESI-QTOF
Ms type: MS2
Ion mode: POSITIVE
Ionization: ESI
Fragmentation mode: CID
Collision energy: 40
Column name: CORTECS UPLC C18 1.6um, 2.1x150mm, Waters
Retention time: 12.049 min
Base peak: 447.3464
Precursor m/z: 717.4677
Precursor type: [M+Na]+
m/z	relative intensity
95.0852	11
109.1021	21
109.4748	13
149.0244	21
167.0346	20
175.1342	10
176.9935	24
179.1378	10
190.3708	11
195.002	999
196.0072	28
225.2203	40
226.2267	11
270.3133	25
346.5164	11
401.2038	18
475.2417	26
493.2532	11
523.4705	134
524.4753	94
525.4777	41
526.4802	59
527.4861	16
545.4517	37
563.4607	16
