Mass spectrum: PG(16:0/18:1(9Z)); LC-ESI-QTOF; MS2; CE: 10; R=; [M+Na]+
Name: PG(16:0/18:1(9Z))
Formula: C40H77O10P
Exact mass: 748.5254
SMILES: CCCCCCCCCCCCCCCC(=O)OC[C@H](COP(O)(=O)OC[C@@H](O)CO)OC(=O)CCCCCCC\C=C/CCCCCCCC
InChI: InChI=1S/C40H77O10P/c1-3-5-7-9-11-13-15-17-18-20-22-24-26-28-30-32-40(44)50-38(36-49-51(45,46)48-34-37(42)33-41)35-47-39(43)31-29-27-25-23-21-19-16-14-12-10-8-6-4-2/h17-18,37-38,41-42H,3-16,19-36H2,1-2H3,(H,45,46)/b18-17-/t37-,38+/m0/s1
Instrument: maXis plus UHR-ToF-MS, Bruker Daltonics
Instrument type: LC-ESI-QTOF
Ms type: MS2
Ion mode: POSITIVE
Ionization: ESI
Fragmentation mode: CID
Collision energy: 10
Column name: CORTECS UPLC C18 1.6um, 2.1x150mm, Waters
Retention time: 13.364 min
Base peak: 766.5583
Precursor m/z: 771.5147
Precursor type: [M+Na]+
m/z	relative intensity
195.0039	11
269.1165	10
325.2271	34
447.3545	14
448.3517	21
469.3375	11
485.3029	18
492.4172	20
578.5233	62
579.5256	55
580.5283	78
581.5369	20
769.498	10
771.5141	999
