Mass spectrum: PE(16:0/16:0); LC-ESI-QTOF; MS2; CE: 40; R=; [M+H]+
Name: PE(16:0/16:0)
Formula: C37H74NO8P
Exact mass: 691.5152
SMILES: [H][C@@](COC(=O)CCCCCCCCCCCCCCC)(COP(O)(=O)OCCN)OC(=O)CCCCCCCCCCCCCCC
InChI: InChI=1S/C37H74NO8P/c1-3-5-7-9-11-13-15-17-19-21-23-25-27-29-36(39)43-33-35(34-45-47(41,42)44-32-31-38)46-37(40)30-28-26-24-22-20-18-16-14-12-10-8-6-4-2/h35H,3-34,38H2,1-2H3,(H,41,42)/t35-/m1/s1
Instrument: maXis plus UHR-ToF-MS, Bruker Daltonics
Instrument type: LC-ESI-QTOF
Ms type: MS2
Ion mode: POSITIVE
Ionization: ESI
Fragmentation mode: CID
Collision energy: 40
Column name: CORTECS UPLC C18 1.6um, 2.1x150mm, Waters
Retention time: 14.503 min
Base peak: 972.7313
Precursor m/z: 692.5225
Precursor type: [M+H]+
m/z	relative intensity
95.0857	194
97.1015	72
99.1173	20
109.1013	124
111.117	27
123.1181	83
137.1327	38
151.1474	68
153.0515	26
153.1132	18
212.4802	15
239.2377	181
240.2382	49
282.2797	62
290.3188	16
313.273	88
314.2791	27
386.2158	17
393.2378	16
551.5022	999
552.507	417
553.5134	73
657.4915	22
