Mass spectrum: PE(15:0/15:0); LC-ESI-QTOF; MS2; CE: 40; R=; [M+H]+
Name: PE(15:0/15:0)
Formula: C35H70NO8P
Exact mass: 663.4839
SMILES: [C@](COC(=O)CCCCCCCCCCCCCC)(OC(=O)CCCCCCCCCCCCCC)([H])COP(OCCN)(O)=O
InChI: InChI=1S/C35H70NO8P/c1-3-5-7-9-11-13-15-17-19-21-23-25-27-34(37)41-31-33(32-43-45(39,40)42-30-29-36)44-35(38)28-26-24-22-20-18-16-14-12-10-8-6-4-2/h33H,3-32,36H2,1-2H3,(H,39,40)/t33-/m1/s1
Instrument: maXis plus UHR-ToF-MS, Bruker Daltonics
Instrument type: LC-ESI-QTOF
Ms type: MS2
Ion mode: POSITIVE
Ionization: ESI
Fragmentation mode: CID
Collision energy: 40
Column name: CORTECS UPLC C18 1.6um, 2.1x150mm, Waters
Retention time: 13.325 min
Base peak: 664.4903
Precursor m/z: 664.4912
Precursor type: [M+H]+
m/z	relative intensity
95.0861	331
97.1017	82
99.0801	5
99.1174	37
107.0865	1
108.0426	1
109.1014	169
111.1168	52
113.1325	21
121.1007	2
123.117	100
124.0156	2
125.1326	33
127.0845	1
127.1469	8
133.0853	1
135.1165	2
137.1322	43
138.1367	4
141.1643	5
149.1376	1
151.1485	18
155.0109	5
178.2278	1
180.0416	1
192.1704	1
204.1872	1
205.1729	1
207.2114	15
208.2148	2
225.2208	213
226.2239	29
227.2262	1
243.2304	3
268.2631	62
269.268	8
270.269	1
281.2447	1
283.2621	2
299.2577	57
300.262	4
323.0695	1
367.3341	1
369.2578	1
379.2234	3
392.4441	1
404.2564	2
422.2636	1
440.2729	1
452.5134	1
453.0955	1
459.0779	1
476.4074	1
477.1188	1
485.3623	1
493.2933	1
507.1796	1
519.0073	1
522.3851	1
523.4714	999
524.4745	282
524.9808	1
525.0432	1
525.4775	26
526.4863	1
