Mass spectrum: PE(17:0/17:0); LC-ESI-QTOF; MS2; CE: 10; R=; [M+H]+
Name: PE(17:0/17:0)
Formula: C39H78NO8P
Exact mass: 719.5465
SMILES: P(OC[C@@H](COC(CCCCCCCCCCCCCCCC)=O)OC(CCCCCCCCCCCCCCCC)=O)(=O)(OCCN)O
InChI: InChI=1S/C39H78NO8P/c1-3-5-7-9-11-13-15-17-19-21-23-25-27-29-31-38(41)45-35-37(36-47-49(43,44)46-34-33-40)48-39(42)32-30-28-26-24-22-20-18-16-14-12-10-8-6-4-2/h37H,3-36,40H2,1-2H3,(H,43,44)/t37-/m1/s1
Instrument: maXis plus UHR-ToF-MS, Bruker Daltonics
Instrument type: LC-ESI-QTOF
Ms type: MS2
Ion mode: POSITIVE
Ionization: ESI
Fragmentation mode: CID
Collision energy: 10
Column name: CORTECS UPLC C18 1.6um, 2.1x150mm, Waters
Retention time: 15.552 min
Base peak: 130.1595
Precursor m/z: 720.5538
Precursor type: [M+H]+
m/z	relative intensity
579.5365	90
580.5362	97
720.5525	999
