Mass spectrum: PG(14:0/14:0); LC-ESI-QTOF; MS2; CE: 40; R=; [M+Na]+
Name: PG(14:0/14:0)
Formula: C34H67O10P
Exact mass: 666.4472
SMILES: C([C@H](CO)O)OP(=O)(O)OC[C@H](OC(CCCCCCCCCCCCC)=O)COC(CCCCCCCCCCCCC)=O
InChI: InChI=1S/C34H67O10P/c1-3-5-7-9-11-13-15-17-19-21-23-25-33(37)41-29-32(30-43-45(39,40)42-28-31(36)27-35)44-34(38)26-24-22-20-18-16-14-12-10-8-6-4-2/h31-32,35-36H,3-30H2,1-2H3,(H,39,40)/t31-,32+/m0/s1
Instrument: maXis plus UHR-ToF-MS, Bruker Daltonics
Instrument type: LC-ESI-QTOF
Ms type: MS2
Ion mode: POSITIVE
Ionization: ESI
Fragmentation mode: CID
Collision energy: 40
Column name: CORTECS UPLC C18 1.6um, 2.1x150mm, Waters
Retention time: 10.585 min
Base peak: 684.4808
Precursor m/z: 689.4364
Precursor type: [M+Na]+
m/z	relative intensity
95.0862	55
96.0912	21
97.102	27
109.1021	30
110.1057	12
111.117	23
113.3751	5
123.1174	28
124.1213	11
137.1314	10
138.0403	6
159.1738	4
168.4816	6
171.1382	8
176.9921	33
184.1342	5
195.0026	999
196.0067	31
197.0069	12
205.4974	5
207.478	5
211.205	88
212.2074	24
213.2113	21
285.2397	21
287.2503	7
387.1924	13
461.2275	6
479.2383	11
480.2398	6
484.3585	4
495.4409	197
496.4438	135
497.4472	120
498.4497	161
499.4521	34
500.4559	5
517.3713	4
517.4207	30
518.4247	19
535.428	11
536.4377	5
689.433	16
