Mass spectrum: PA(14:0/14:0); LC-ESI-QTOF; MS2; CE: 40; R=; [M+NH4]+
Name: PA(14:0/14:0)
Formula: C31H61O8P
Exact mass: 592.4104
SMILES: CCCCCCCCCCCCCC(=O)OC[C@H](COP(O)(O)=O)OC(=O)CCCCCCCCCCCCC
InChI: InChI=1S/C31H61O8P/c1-3-5-7-9-11-13-15-17-19-21-23-25-30(32)37-27-29(28-38-40(34,35)36)39-31(33)26-24-22-20-18-16-14-12-10-8-6-4-2/h29H,3-28H2,1-2H3,(H2,34,35,36)/t29-/m1/s1
Instrument: maXis plus UHR-ToF-MS, Bruker Daltonics
Instrument type: LC-ESI-QTOF
Ms type: MS2
Ion mode: POSITIVE
Ionization: ESI
Fragmentation mode: CID
Collision energy: 40
Column name: CORTECS UPLC C18 1.6um, 2.1x150mm, Waters
Retention time: 11.365 min
Base peak: 447.3467
Precursor m/z: 610.4442
Precursor type: [M+NH4]+
m/z	relative intensity
95.0361	28
95.0858	425
97.1014	136
99.1176	48
109.1014	232
110.1057	30
111.1171	159
123.1168	50
148.1146	27
149.0287	26
155.01	103
190.0933	22
211.205	325
212.2083	111
285.2435	61
365.2076	25
495.4395	999
496.4459	237
497.4491	48
