Mass spectrum: PS(16:0/18:1(9Z)); LC-ESI-QTOF; MS2; CE: 20; R=; [M+H]+
Name: PS(16:0/18:1(9Z))
Formula: C40H76NO10P
Exact mass: 761.5207
SMILES: [H][C@](N)(COP(O)(=O)OC[C@@]([H])(COC(=O)CCCCCCCCCCCCCCC)OC(=O)CCCCCCC\C=C/CCCCCCCC)C(O)=O
InChI: InChI=1S/C40H76NO10P/c1-3-5-7-9-11-13-15-17-18-20-22-24-26-28-30-32-39(43)51-36(34-49-52(46,47)50-35-37(41)40(44)45)33-48-38(42)31-29-27-25-23-21-19-16-14-12-10-8-6-4-2/h17-18,36-37H,3-16,19-35,41H2,1-2H3,(H,44,45)(H,46,47)/b18-17-/t36-,37+/m1/s1
Instrument: maXis plus UHR-ToF-MS, Bruker Daltonics
Instrument type: LC-ESI-QTOF
Ms type: MS2
Ion mode: POSITIVE
Ionization: ESI
Fragmentation mode: CID
Collision energy: 20
Column name: CORTECS UPLC C18 1.6um, 2.1x150mm, Waters
Retention time: 13.305 min
Base peak: 447.3471
Precursor m/z: 762.528
Precursor type: [M+H]+
m/z	relative intensity
141.1643	2
258.5262	1
305.9495	1
313.2722	3
315.154	2
322.0863	1
326.2701	1
339.2911	2
340.2894	1
341.4661	1
352.2856	6
354.2911	2
419.2595	1
457.3354	1
465.2929	1
466.4216	1
473.5051	1
480.2694	2
480.366	1
481.2766	1
485.3046	1
486.295	1
487.4267	2
498.2825	5
499.2827	2
505.587	2
506.2864	5
506.4115	1
507.3005	1
524.2943	4
525.1458	1
551.5029	1
570.1219	1
576.3001	1
576.4026	3
576.502	1
576.5488	1
576.9836	1
577.5184	999
578.522	290
579.5249	35
762.5264	255
