Mass spectrum: PS(14:0/14:0); LC-ESI-QTOF; MS2; CE: 20; R=; [M+H]+
Name: PS(14:0/14:0)
Formula: C34H66NO10P
Exact mass: 679.4424
SMILES: CCCCCCCCCCCCCC(=O)OC[C@H](COP(O)(=O)OC[C@H](N)C(O)=O)OC(=O)CCCCCCCCCCCCC
InChI: InChI=1S/C34H66NO10P/c1-3-5-7-9-11-13-15-17-19-21-23-25-32(36)42-27-30(28-43-46(40,41)44-29-31(35)34(38)39)45-33(37)26-24-22-20-18-16-14-12-10-8-6-4-2/h30-31H,3-29,35H2,1-2H3,(H,38,39)(H,40,41)/t30-,31+/m1/s1
Instrument: maXis plus UHR-ToF-MS, Bruker Daltonics
Instrument type: LC-ESI-QTOF
Ms type: MS2
Ion mode: POSITIVE
Ionization: ESI
Fragmentation mode: CID
Collision energy: 20
Column name: CORTECS UPLC C18 1.6um, 2.1x150mm, Waters
Retention time: 10.420 min
Base peak: 680.449
Precursor m/z: 680.4497
Precursor type: [M+H]+
m/z	relative intensity
95.099	2
106.0496	5
211.2045	8
232.2639	2
285.2415	6
286.2456	2
298.2379	14
299.241	3
320.019	2
328.1167	3
339.2992	2
354.356	2
355.3417	2
357.0784	2
365.207	3
366.2035	2
370.9445	2
375.9697	2
448.2275	3
449.9818	2
452.2404	11
453.2469	2
462.0056	2
464.1976	2
470.2126	2
470.2494	9
471.2507	2
476.2652	2
494.4012	2
495.4402	999
496.4437	303
497.1761	2
497.4471	28
663.4466	2
680.448	66
