Mass spectrum: PG(15:0/15:0); LC-ESI-QTOF; MS2; CE: 10; R=; [M+H]+
Name: PG(15:0/15:0)
Formula: C36H71O10P
Exact mass: 694.4785
SMILES: CCCCCCCCCCCCCCC(=O)OC[C@H](COP(O)(=O)OC[C@@H](O)CO)OC(=O)CCCCCCCCCCCCCC
InChI: InChI=1S/C36H71O10P/c1-3-5-7-9-11-13-15-17-19-21-23-25-27-35(39)43-31-34(32-45-47(41,42)44-30-33(38)29-37)46-36(40)28-26-24-22-20-18-16-14-12-10-8-6-4-2/h33-34,37-38H,3-32H2,1-2H3,(H,41,42)/t33-,34+/m0/s1
Instrument: maXis plus UHR-ToF-MS, Bruker Daltonics
Instrument type: LC-ESI-QTOF
Ms type: MS2
Ion mode: POSITIVE
Ionization: ESI
Fragmentation mode: CID
Collision energy: 10
Column name: CORTECS UPLC C18 1.6um, 2.1x150mm, Waters
Retention time: 12.060 min
Base peak: 447.347
Precursor m/z: 695.4858
Precursor type: [M+H]+
m/z	relative intensity
447.347	65
523.4723	999
524.4753	317
525.4755	50
677.441	31
695.4861	118
