Mass spectrum: PC(16:0/18:0); LC-ESI-QTOF; MS2; CE: 10; R=; [M+Na]+
Name: PC(16:0/18:0)
Name: 1-Hexadecanoyl-2-octadecanoyl-sn-glycero-3-phosphocholine
Name: [(2R)-3-hexadecanoyloxy-2-octadecanoyloxypropyl] 2-(trimethylazaniumyl)ethyl phosphate
Formula: C42H84NO8P
Exact mass: 761.5935
SMILES: [H][C@@](COC(=O)CCCCCCCCCCCCCCC)(COP([O-])(=O)OCC[N+](C)(C)C)OC(=O)CCCCCCCCCCCCCCCCC
InChI: InChI=1S/C42H84NO8P/c1-6-8-10-12-14-16-18-20-21-23-25-27-29-31-33-35-42(45)51-40(39-50-52(46,47)49-37-36-43(3,4)5)38-48-41(44)34-32-30-28-26-24-22-19-17-15-13-11-9-7-2/h40H,6-39H2,1-5H3/t40-/m1/s1
Instrument: maXis plus UHR-ToF-MS, Bruker Daltonics
Instrument type: LC-ESI-QTOF
Ms type: MS2
Ion mode: POSITIVE
Ionization: ESI
Fragmentation mode: CID
Collision energy: 10
Column name: CORTECS UPLC C18 1.6um, 2.1x150mm, Waters
Retention time: 15.312 min
Base peak: 762.5986
Precursor m/z: 784.5827
Precursor type: [M+Na]+
m/z	relative intensity
784.5802	999
