Mass spectrum: PC(14:0/14:0); LC-ESI-QTOF; MS2; CE: 20; R=; [M+Na]+
Name: PC(14:0/14:0)
Name: 1,2-Dimyristoyl-sn-glycero-3-phosphocholine
Name: [(2R)-2,3-di(tetradecanoyloxy)propyl] 2-(trimethylazaniumyl)ethyl phosphate
Formula: C36H72NO8P
Exact mass: 677.4996
SMILES: CCCCCCCCCCCCCC(=O)OC[C@H](COP([O-])(=O)OCC[N+](C)(C)C)OC(=O)CCCCCCCCCCCCC
InChI: InChI=1S/C36H72NO8P/c1-6-8-10-12-14-16-18-20-22-24-26-28-35(38)42-32-34(33-44-46(40,41)43-31-30-37(3,4)5)45-36(39)29-27-25-23-21-19-17-15-13-11-9-7-2/h34H,6-33H2,1-5H3/t34-/m1/s1
Instrument: maXis plus UHR-ToF-MS, Bruker Daltonics
Instrument type: LC-ESI-QTOF
Ms type: MS2
Ion mode: POSITIVE
Ionization: ESI
Fragmentation mode: CID
Collision energy: 20
Column name: CORTECS UPLC C18 1.6um, 2.1x150mm, Waters
Retention time: 11.579 min
Base peak: 678.5075
Precursor m/z: 700.4888
Precursor type: [M+Na]+
m/z	relative intensity
146.9825	13
495.4451	6
517.4229	9
641.415	53
642.4163	19
700.4891	999
