Mass spectrum: PE(18:0/20:4(5Z,8Z,11Z,14Z)); LC-ESI-QTOF; MS2; CE: 10; R=; [M+H]+
Name: PE(18:0/20:4(5Z,8Z,11Z,14Z))
Formula: C43H78NO8P
Exact mass: 767.5465
SMILES: CCCCCCCCCCCCCCCCCC(=O)OC[C@H](COP(O)(=O)OCCN)OC(=O)CCC\C=C/C\C=C/C\C=C/C\C=C/CCCCC
InChI: InChI=1S/C43H78NO8P/c1-3-5-7-9-11-13-15-17-19-20-22-24-26-28-30-32-34-36-43(46)52-41(40-51-53(47,48)50-38-37-44)39-49-42(45)35-33-31-29-27-25-23-21-18-16-14-12-10-8-6-4-2/h11,13,17,19,22,24,28,30,41H,3-10,12,14-16,18,20-21,23,25-27,29,31-40,44H2,1-2H3,(H,47,48)/b13-11-,19-17-,24-22-,30-28-/t41-/m1/s1
Instrument: maXis plus UHR-ToF-MS, Bruker Daltonics
Instrument type: LC-ESI-QTOF
Ms type: MS2
Ion mode: POSITIVE
Ionization: ESI
Fragmentation mode: CID
Collision energy: 10
Column name: CORTECS UPLC C18 1.6um, 2.1x150mm, Waters
Retention time: 14.498 min
Base peak: 768.5523
Precursor m/z: 768.5538
Precursor type: [M+H]+
m/z	relative intensity
166.2527	1
341.3016	1
363.4883	1
500.5647	1
627.5334	62
628.5374	15
629.5442	2
630.2218	1
768.5535	999
