Mass spectrum: PE(16:0/20:4(5Z,8Z,11Z,14Z)); LC-ESI-QTOF; MS2; CE: 40; R=; [M+Na]+
Name: PE(16:0/20:4(5Z,8Z,11Z,14Z))
Formula: C41H74NO8P
Exact mass: 739.5152
SMILES: CCCCCCCCCCCCCCCC(=O)OC[C@H](COP(O)(=O)OCCN)OC(=O)CCC\C=C/C\C=C/C\C=C/C\C=C/CCCCC
InChI: InChI=1S/C41H74NO8P/c1-3-5-7-9-11-13-15-17-18-19-20-22-24-26-28-30-32-34-41(44)50-39(38-49-51(45,46)48-36-35-42)37-47-40(43)33-31-29-27-25-23-21-16-14-12-10-8-6-4-2/h11,13,17-18,20,22,26,28,39H,3-10,12,14-16,19,21,23-25,27,29-38,42H2,1-2H3,(H,45,46)/b13-11-,18-17-,22-20-,28-26-/t39-/m1/s1
Instrument: maXis plus UHR-ToF-MS, Bruker Daltonics
Instrument type: LC-ESI-QTOF
Ms type: MS2
Ion mode: POSITIVE
Ionization: ESI
Fragmentation mode: CID
Collision energy: 40
Column name: CORTECS UPLC C18 1.6um, 2.1x150mm, Waters
Retention time: 13.404 min
Base peak: 740.5214
Precursor m/z: 762.5044
Precursor type: [M+Na]+
m/z	relative intensity
105.0693	26
105.4215	20
120.9664	251
127.4991	26
135.9766	21
136.1165	20
145.9982	48
164.0089	768
165.0115	47
166.004	23
182.0195	21
239.2354	27
313.2738	150
314.2802	24
367.2799	25
415.0445	21
416.0359	32
433.2364	39
434.2348	38
463.2206	67
599.5043	179
600.5034	112
601.5057	29
621.4845	999
622.4861	408
623.4885	67
639.4879	36
719.4633	320
720.4612	142
762.5041	121
