Mass spectrum: PS(14:0/14:0); LC-ESI-QTOF; MS2; CE: 10; R=; [M+H]+
Name: PS(14:0/14:0)
Formula: C34H66NO10P
Exact mass: 679.4424
SMILES: CCCCCCCCCCCCCC(=O)OC[C@H](COP(O)(=O)OC[C@H](N)C(O)=O)OC(=O)CCCCCCCCCCCCC
InChI: InChI=1S/C34H66NO10P/c1-3-5-7-9-11-13-15-17-19-21-23-25-32(36)42-27-30(28-43-46(40,41)44-29-31(35)34(38)39)45-33(37)26-24-22-20-18-16-14-12-10-8-6-4-2/h30-31H,3-29,35H2,1-2H3,(H,38,39)(H,40,41)/t30-,31+/m1/s1
Instrument: maXis plus UHR-ToF-MS, Bruker Daltonics
Instrument type: LC-ESI-QTOF
Ms type: MS2
Ion mode: POSITIVE
Ionization: ESI
Fragmentation mode: CID
Collision energy: 10
Column name: CORTECS UPLC C18 1.6um, 2.1x150mm, Waters
Retention time: 10.420 min
Base peak: 680.449
Precursor m/z: 680.4497
Precursor type: [M+H]+
m/z	relative intensity
325.2713	3
389.0439	3
398.2663	3
489.2706	4
495.4396	343
496.4444	87
497.4441	6
504.4525	4
680.4503	999
