Mass spectrum: PE(16:0/16:0); LC-ESI-QTOF; MS2; CE: 20; R=; [M+Na]+
Name: PE(16:0/16:0)
Formula: C37H74NO8P
Exact mass: 691.5152
SMILES: [H][C@@](COC(=O)CCCCCCCCCCCCCCC)(COP(O)(=O)OCCN)OC(=O)CCCCCCCCCCCCCCC
InChI: InChI=1S/C37H74NO8P/c1-3-5-7-9-11-13-15-17-19-21-23-25-27-29-36(39)43-33-35(34-45-47(41,42)44-32-31-38)46-37(40)30-28-26-24-22-20-18-16-14-12-10-8-6-4-2/h35H,3-34,38H2,1-2H3,(H,41,42)/t35-/m1/s1
Instrument: maXis plus UHR-ToF-MS, Bruker Daltonics
Instrument type: LC-ESI-QTOF
Ms type: MS2
Ion mode: POSITIVE
Ionization: ESI
Fragmentation mode: CID
Collision energy: 20
Column name: CORTECS UPLC C18 1.6um, 2.1x150mm, Waters
Retention time: 14.775 min
Base peak: 692.5236
Precursor m/z: 714.5044
Precursor type: [M+Na]+
m/z	relative intensity
164.0094	102
403.0493	23
539.4315	209
540.4379	33
671.4607	26
714.5041	999
