Mass spectrum: PS(16:0/22:6(4Z,7Z,10Z,13Z,16Z,19Z)); LC-ESI-QTOF; MS2; CE: 40; R=; [M+H]+
Name: PS(16:0/22:6(4Z,7Z,10Z,13Z,16Z,19Z))
Formula: C44H74NO10P
Exact mass: 807.5050
SMILES: CCCCCCCCCCCCCCCC(=O)OC[C@H](COP(O)(=O)OC[C@H](N)C(O)=O)OC(=O)CC\C=C/C\C=C/C\C=C/C\C=C/C\C=C/C\C=C/CC
InChI: InChI=1S/C44H74NO10P/c1-3-5-7-9-11-13-15-17-18-19-20-21-22-24-26-28-30-32-34-36-43(47)55-40(38-53-56(50,51)54-39-41(45)44(48)49)37-52-42(46)35-33-31-29-27-25-23-16-14-12-10-8-6-4-2/h5,7,11,13,17-18,20-21,24,26,30,32,40-41H,3-4,6,8-10,12,14-16,19,22-23,25,27-29,31,33-39,45H2,1-2H3,(H,48,49)(H,50,51)/b7-5-,13-11-,18-17-,21-20-,26-24-,32-30-/t40-,41+/m1/s1
Instrument: maXis plus UHR-ToF-MS, Bruker Daltonics
Instrument type: LC-ESI-QTOF
Ms type: MS2
Ion mode: POSITIVE
Ionization: ESI
Fragmentation mode: CID
Collision energy: 40
Column name: CORTECS UPLC C18 1.6um, 2.1x150mm, Waters
Retention time: 11.640 min
Base peak: 447.3465
Precursor m/z: 808.5123
Precursor type: [M+H]+
m/z	relative intensity
95.0862	134
97.1018	25
99.1165	25
106.1476	10
109.101	17
111.1166	12
113.1328	9
117.0711	29
119.0861	30
121.1019	23
123.1173	21
124.1222	11
127.1488	14
131.0858	23
133.1016	30
137.1325	11
143.0851	18
145.1019	35
149.0242	16
155.0099	20
155.0856	15
159.1175	11
167.0329	20
171.1172	32
173.1326	11
177.1263	10
185.1319	9
187.1456	15
201.164	26
202.1635	10
221.2262	13
239.2375	71
240.2371	12
313.273	79
314.2806	15
325.3977	11
326.2672	25
329.1713	12
371.2393	13
385.2764	35
386.2729	13
393.2412	25
398.2687	29
399.2841	9
459.1778	10
469.3269	10
470.329	14
535.2688	10
616.4592	11
623.5021	999
624.5052	485
625.5118	28
626.5153	10
