Mass spectrum: PS(16:0/18:1(9Z)); LC-ESI-QTOF; MS2; CE: 10; R=; [M+H]+
Name: PS(16:0/18:1(9Z))
Formula: C40H76NO10P
Exact mass: 761.5207
SMILES: [H][C@](N)(COP(O)(=O)OC[C@@]([H])(COC(=O)CCCCCCCCCCCCCCC)OC(=O)CCCCCCC\C=C/CCCCCCCC)C(O)=O
InChI: InChI=1S/C40H76NO10P/c1-3-5-7-9-11-13-15-17-18-20-22-24-26-28-30-32-39(43)51-36(34-49-52(46,47)50-35-37(41)40(44)45)33-48-38(42)31-29-27-25-23-21-19-16-14-12-10-8-6-4-2/h17-18,36-37H,3-16,19-35,41H2,1-2H3,(H,44,45)(H,46,47)/b18-17-/t36-,37+/m1/s1
Instrument: maXis plus UHR-ToF-MS, Bruker Daltonics
Instrument type: LC-ESI-QTOF
Ms type: MS2
Ion mode: POSITIVE
Ionization: ESI
Fragmentation mode: CID
Collision energy: 10
Column name: CORTECS UPLC C18 1.6um, 2.1x150mm, Waters
Retention time: 13.305 min
Base peak: 447.3471
Precursor m/z: 762.528
Precursor type: [M+H]+
m/z	relative intensity
352.2805	3
485.2011	2
508.3986	2
521.1526	2
577.518	148
578.3413	2
578.5217	46
579.5282	2
648.4008	2
762.528	999
