Mass spectrum: PE(16:0/22:6(4Z,7Z,10Z,13Z,16Z,19Z)); LC-ESI-QTOF; MS2; CE: 40; R=; [M+H]+
Name: PE(16:0/22:6(4Z,7Z,10Z,13Z,16Z,19Z))
Formula: C43H74NO8P
Exact mass: 763.5152
SMILES: CCCCCCCCCCCCCCCC(=O)OC[C@H](COP(O)(=O)OCCN)OC(=O)CC\C=C/C\C=C/C\C=C/C\C=C/C\C=C/C\C=C/CC
InChI: InChI=1S/C43H74NO8P/c1-3-5-7-9-11-13-15-17-18-19-20-21-22-24-26-28-30-32-34-36-43(46)52-41(40-51-53(47,48)50-38-37-44)39-49-42(45)35-33-31-29-27-25-23-16-14-12-10-8-6-4-2/h5,7,11,13,17-18,20-21,24,26,30,32,41H,3-4,6,8-10,12,14-16,19,22-23,25,27-29,31,33-40,44H2,1-2H3,(H,47,48)/b7-5-,13-11-,18-17-,21-20-,26-24-,32-30-/t41-/m1/s1
Instrument: maXis plus UHR-ToF-MS, Bruker Daltonics
Instrument type: LC-ESI-QTOF
Ms type: MS2
Ion mode: POSITIVE
Ionization: ESI
Fragmentation mode: CID
Collision energy: 40
Column name: CORTECS UPLC C18 1.6um, 2.1x150mm, Waters
Retention time: 12.991 min
Base peak: 764.5217
Precursor m/z: 764.5225
Precursor type: [M+H]+
m/z	relative intensity
95.0501	7
95.0862	139
96.0905	6
97.0652	12
97.1019	31
98.0604	1
98.4115	1
99.1172	17
105.0699	41
106.075	2
107.0489	2
107.0858	43
109.0652	4
109.1018	58
111.0794	2
111.1173	5
113.0601	1
113.1328	8
115.0549	3
115.5233	1
116.1979	1
117.0704	29
119.086	63
120.0898	2
121.0641	1
121.1017	22
123.0802	3
123.1175	28
124.0154	2
124.118	1
125.1338	6
128.0613	1
129.0703	21
130.0765	2
131.0857	54
132.0903	3
133.0629	1
133.1016	28
135.0808	2
135.1176	18
137.1338	9
139.0747	1
139.1171	1
139.1484	1
141.0694	8
141.1628	1
142.0252	1
142.0791	1
143.0859	20
145.102	27
146.106	1
147.0822	2
147.1168	11
148.1188	2
149.0975	1
149.1329	3
151.1496	3
155.0107	3
155.0866	5
157.1019	11
157.1594	1
159.0815	1
159.117	19
160.2737	1
161.0974	3
161.1332	10
164.268	1
165.0471	1
166.1659	1
166.2727	1
168.2209	1
169.1016	7
169.1573	1
170.1353	1
171.1174	13
172.1195	3
173.1333	9
173.2038	1
175.1107	1
175.1488	4
177.1255	1
181.0997	3
181.9751	1
182.1057	1
183.1164	5
184.1215	1
185.1331	6
186.1383	1
187.1491	5
188.1499	1
189.1257	1
189.1654	1
191.1057	1
192.3622	1
195.1176	1
197.1329	3
198.0521	1
198.1365	1
199.1526	2
201.1641	16
202.1675	2
207.062	1
207.5565	1
209.1332	2
211.1474	1
211.5113	1
213.1632	9
215.1425	1
215.1821	1
221.227	5
221.3295	1
223.147	3
225.164	4
226.1677	1
227.1797	3
229.1586	1
230.1711	1
231.1376	1
232.3025	1
236.4255	1
237.1625	3
239.1793	6
239.2372	47
240.2168	1
240.238	5
241.1522	1
244.4168	1
245.1543	1
247.1707	1
253.1937	2
254.1979	3
257.1529	1
258.1561	1
267.2108	2
269.2265	1
282.2798	11
283.2822	2
293.2252	4
294.2307	1
295.2616	1
297.2797	2
306.0403	1
309.2186	1
311.1992	1
311.2382	2
311.2572	2
313.2739	49
314.2763	8
315.2791	1
339.2303	1
354.2787	32
355.2826	6
367.2631	2
367.2847	2
385.2729	24
386.2751	6
393.2394	6
394.2484	2
418.2677	2
436.282	3
454.2925	3
465.0668	1
480.0462	1
519.1298	1
548.3769	1
550.2841	1
562.963	1
616.9785	1
621.4976	1
622.0038	1
622.102	1
622.1339	1
622.2284	1
622.401	1
622.4847	1
622.9875	2
623.5033	999
624.5063	336
625.5094	37
626.2444	1
626.5129	1
