Mass spectrum: PA(16:0/22:6(4Z,7Z,10Z,13Z,16Z,19Z)); LC-ESI-QTOF; MS2; CE: 20; R=; [M+NH4]+
Name: PA(16:0/22:6(4Z,7Z,10Z,13Z,16Z,19Z))
Formula: C41H69O8P
Exact mass: 720.4730
SMILES: CCCCCCCCCCCCCCCC(=O)OC[C@H](COP(O)(O)=O)OC(=O)CC\C=C/C\C=C/C\C=C/C\C=C/C\C=C/C\C=C/CC
InChI: InChI=1S/C41H69O8P/c1-3-5-7-9-11-13-15-17-18-19-20-21-22-24-26-28-30-32-34-36-41(43)49-39(38-48-50(44,45)46)37-47-40(42)35-33-31-29-27-25-23-16-14-12-10-8-6-4-2/h5,7,11,13,17-18,20-21,24,26,30,32,39H,3-4,6,8-10,12,14-16,19,22-23,25,27-29,31,33-38H2,1-2H3,(H2,44,45,46)/b7-5-,13-11-,18-17-,21-20-,26-24-,32-30-/t39-/m1/s1
Instrument: maXis plus UHR-ToF-MS, Bruker Daltonics
Instrument type: LC-ESI-QTOF
Ms type: MS2
Ion mode: POSITIVE
Ionization: ESI
Fragmentation mode: CID
Collision energy: 20
Column name: CORTECS UPLC C18 1.6um, 2.1x150mm, Waters
Retention time: 12.446 min
Base peak: 447.3455
Precursor m/z: 738.5068
Precursor type: [M+NH4]+
m/z	relative intensity
155.0115	95
201.1698	45
239.2337	71
292.2824	72
293.2216	104
311.2354	179
313.272	212
329.2414	49
345.4596	45
367.2579	79
393.2378	264
447.3484	74
623.5021	999
624.503	323
625.5065	101
721.4773	182
722.4825	84
738.5087	61
