Mass spectrum: PG(16:0/22:6(4Z,7Z,10Z,13Z,16Z,19Z)); LC-ESI-QTOF; MS2; CE: 10; R=; [M+H]+
Name: PG(16:0/22:6(4Z,7Z,10Z,13Z,16Z,19Z))
Formula: C44H75O10P
Exact mass: 794.5098
SMILES: C([C@@](COC(CCCCCCCCCCCCCCC)=O)(OC(CC/C=C\C/C=C\C/C=C\C/C=C\C/C=C\C/C=C\CC)=O)[H])OP(=O)(O)OC[C@@](CO)([H])O
InChI: InChI=1S/C44H75O10P/c1-3-5-7-9-11-13-15-17-18-19-20-21-22-24-26-28-30-32-34-36-44(48)54-42(40-53-55(49,50)52-38-41(46)37-45)39-51-43(47)35-33-31-29-27-25-23-16-14-12-10-8-6-4-2/h5,7,11,13,17-18,20-21,24,26,30,32,41-42,45-46H,3-4,6,8-10,12,14-16,19,22-23,25,27-29,31,33-40H2,1-2H3,(H,49,50)/b7-5-,13-11-,18-17-,21-20-,26-24-,32-30-/t41-,42+/m0/s1
Instrument: maXis plus UHR-ToF-MS, Bruker Daltonics
Instrument type: LC-ESI-QTOF
Ms type: MS2
Ion mode: POSITIVE
Ionization: ESI
Fragmentation mode: CID
Collision energy: 10
Column name: CORTECS UPLC C18 1.6um, 2.1x150mm, Waters
Retention time: 11.811 min
Base peak: 447.3463
Precursor m/z: 795.5171
Precursor type: [M+H]+
m/z	relative intensity
348.2823	175
447.3472	276
623.5002	999
624.5098	340
629.5242	162
795.5174	178
