Mass spectrum: PE(16:0/16:0); LC-ESI-QTOF; MS2; CE: 40; R=; [M+Na]+
Name: PE(16:0/16:0)
Formula: C37H74NO8P
Exact mass: 691.5152
SMILES: [H][C@@](COC(=O)CCCCCCCCCCCCCCC)(COP(O)(=O)OCCN)OC(=O)CCCCCCCCCCCCCCC
InChI: InChI=1S/C37H74NO8P/c1-3-5-7-9-11-13-15-17-19-21-23-25-27-29-36(39)43-33-35(34-45-47(41,42)44-32-31-38)46-37(40)30-28-26-24-22-20-18-16-14-12-10-8-6-4-2/h35H,3-34,38H2,1-2H3,(H,41,42)/t35-/m1/s1
Instrument: maXis plus UHR-ToF-MS, Bruker Daltonics
Instrument type: LC-ESI-QTOF
Ms type: MS2
Ion mode: POSITIVE
Ionization: ESI
Fragmentation mode: CID
Collision energy: 40
Column name: CORTECS UPLC C18 1.6um, 2.1x150mm, Waters
Retention time: 14.775 min
Base peak: 692.5236
Precursor m/z: 714.5044
Precursor type: [M+Na]+
m/z	relative intensity
95.5557	56
109.0993	74
113.1314	100
120.9669	547
141.1289	82
145.1214	73
145.997	58
164.0086	999
239.235	145
262.1558	51
399.3082	70
415.2238	168
416.2262	67
539.4308	304
540.4359	70
551.5054	724
552.5084	142
573.4864	682
574.4932	94
591.4955	70
671.4672	83
672.4703	121
714.5012	91
