Mass spectrum: PC(16:0/18:2(9Z,12Z)); LC-ESI-QTOF; MS2; CE: 10; R=; [M+Na]+
Name: PC(16:0/18:2(9Z,12Z))
Name: 1-Hexadecanoyl-2-(9Z,12Z-octadecadienoyl)-sn-glycero-3-phosphocholine
Name: [(2R)-3-hexadecanoyloxy-2-[(9Z,12Z)-octadeca-9,12-dienoyl]oxypropyl] 2-(trimethylazaniumyl)ethyl phosphate
Formula: C42H80NO8P
Exact mass: 757.5622
SMILES: C(C[N+](C)(C)C)OP(=O)([O-])OC[C@H](OC(CCCCCCC/C=C\C/C=C\CCCCC)=O)COC(=O)CCCCCCCCCCCCCCC
InChI: InChI=1S/C42H80NO8P/c1-6-8-10-12-14-16-18-20-21-23-25-27-29-31-33-35-42(45)51-40(39-50-52(46,47)49-37-36-43(3,4)5)38-48-41(44)34-32-30-28-26-24-22-19-17-15-13-11-9-7-2/h14,16,20-21,40H,6-13,15,17-19,22-39H2,1-5H3/b16-14-,21-20-/t40-/m1/s1
Instrument: maXis plus UHR-ToF-MS, Bruker Daltonics
Instrument type: LC-ESI-QTOF
Ms type: MS2
Ion mode: POSITIVE
Ionization: ESI
Fragmentation mode: CID
Collision energy: 10
Column name: CORTECS UPLC C18 1.6um, 2.1x150mm, Waters
Retention time: 13.301 min
Base peak: 758.5679
Precursor m/z: 780.5514
Precursor type: [M+Na]+
m/z	relative intensity
164.089	45
780.5497	999
