Mass spectrum: PE(16:0/16:0); LC-ESI-QTOF; MS2; CE: 20; R=; [M+H]+
Name: PE(16:0/16:0)
Formula: C37H74NO8P
Exact mass: 691.5152
SMILES: [H][C@@](COC(=O)CCCCCCCCCCCCCCC)(COP(O)(=O)OCCN)OC(=O)CCCCCCCCCCCCCCC
InChI: InChI=1S/C37H74NO8P/c1-3-5-7-9-11-13-15-17-19-21-23-25-27-29-36(39)43-33-35(34-45-47(41,42)44-32-31-38)46-37(40)30-28-26-24-22-20-18-16-14-12-10-8-6-4-2/h35H,3-34,38H2,1-2H3,(H,41,42)/t35-/m1/s1
Instrument: maXis plus UHR-ToF-MS, Bruker Daltonics
Instrument type: LC-ESI-QTOF
Ms type: MS2
Ion mode: POSITIVE
Ionization: ESI
Fragmentation mode: CID
Collision energy: 20
Column name: CORTECS UPLC C18 1.6um, 2.1x150mm, Waters
Retention time: 14.503 min
Base peak: 972.7313
Precursor m/z: 692.5225
Precursor type: [M+H]+
m/z	relative intensity
201.041	9
243.4986	9
259.1895	11
282.2787	15
329.295	9
436.2799	13
454.2913	13
498.9897	9
510.5508	9
551.5029	999
552.5054	310
553.5095	17
657.4903	18
692.5201	261
