Mass spectrum: PA(18:0/18:0); LC-ESI-QTOF; MS2; CE: 40; R=; [M+NH4]+
Name: PA(18:0/18:0)
Formula: C39H77O8P
Exact mass: 704.5356
SMILES: CCCCCCCCCCCCCCCCCC(=O)OC[C@H](COP(O)(O)=O)OC(=O)CCCCCCCCCCCCCCCCC
InChI: InChI=1S/C39H77O8P/c1-3-5-7-9-11-13-15-17-19-21-23-25-27-29-31-33-38(40)45-35-37(36-46-48(42,43)44)47-39(41)34-32-30-28-26-24-22-20-18-16-14-12-10-8-6-4-2/h37H,3-36H2,1-2H3,(H2,42,43,44)/t37-/m1/s1
Instrument: maXis plus UHR-ToF-MS, Bruker Daltonics
Instrument type: LC-ESI-QTOF
Ms type: MS2
Ion mode: POSITIVE
Ionization: ESI
Fragmentation mode: CID
Collision energy: 40
Column name: CORTECS UPLC C18 1.6um, 2.1x150mm, Waters
Retention time: 17.990 min
Base peak: 447.346
Precursor m/z: 722.5694
Precursor type: [M+NH4]+
m/z	relative intensity
97.1021	234
113.0965	156
113.1328	147
117.0904	138
141.1262	689
211.1675	338
213.1474	144
281.0996	156
309.0188	191
327.251	405
328.2557	162
343.2445	167
355.2805	486
383.3157	593
384.3153	422
386.3223	141
455.3364	402
483.3651	999
484.3678	220
511.3974	610
512.4022	338
539.4316	946
540.4285	390
551.3307	138
579.3597	431
607.3872	167
607.5611	176
