Mass spectrum: PE(15:0/15:0); LC-ESI-QTOF; MS2; CE: 20; R=; [M+Na]+
Name: PE(15:0/15:0)
Formula: C35H70NO8P
Exact mass: 663.4839
SMILES: [C@](COC(=O)CCCCCCCCCCCCCC)(OC(=O)CCCCCCCCCCCCCC)([H])COP(OCCN)(O)=O
InChI: InChI=1S/C35H70NO8P/c1-3-5-7-9-11-13-15-17-19-21-23-25-27-34(37)41-31-33(32-43-45(39,40)42-30-29-36)44-35(38)28-26-24-22-20-18-16-14-12-10-8-6-4-2/h33H,3-32,36H2,1-2H3,(H,39,40)/t33-/m1/s1
Instrument: maXis plus UHR-ToF-MS, Bruker Daltonics
Instrument type: LC-ESI-QTOF
Ms type: MS2
Ion mode: POSITIVE
Ionization: ESI
Fragmentation mode: CID
Collision energy: 20
Column name: CORTECS UPLC C18 1.6um, 2.1x150mm, Waters
Retention time: 13.325 min
Base peak: 664.4907
Precursor m/z: 686.4731
Precursor type: [M+Na]+
m/z	relative intensity
141.1267	10
164.0087	62
289.4835	12
511.3971	99
512.4009	15
539.4299	14
540.4336	9
545.4524	16
599.0349	9
643.4291	26
644.4262	10
686.4728	999
