Mass spectrum: PC(18:0/16:0); LC-ESI-QTOF; MS2; CE: 40; R=; [M+H]+
Name: PC(18:0/16:0)
Name: 1-Stearoyl-2-palmitoyl-sn-glycero-3-phosphocholine
Name: [(2R)-2-hexadecanoyloxy-3-octadecanoyloxypropyl] 2-(trimethylazaniumyl)ethyl phosphate
Formula: C42H84NO8P
Exact mass: 761.5935
SMILES: C(C[N+](C)(C)C)OP(=O)([O-])OC[C@H](OC(CCCCCCCCCCCCCCC)=O)COC(=O)CCCCCCCCCCCCCCCCC
InChI: InChI=1S/C42H84NO8P/c1-6-8-10-12-14-16-18-20-21-23-24-26-28-30-32-34-41(44)48-38-40(39-50-52(46,47)49-37-36-43(3,4)5)51-42(45)35-33-31-29-27-25-22-19-17-15-13-11-9-7-2/h40H,6-39H2,1-5H3/t40-/m1/s1
Instrument: maXis plus UHR-ToF-MS, Bruker Daltonics
Instrument type: LC-ESI-QTOF
Ms type: MS2
Ion mode: POSITIVE
Ionization: ESI
Fragmentation mode: CID
Collision energy: 40
Column name: CORTECS UPLC C18 1.6um, 2.1x150mm, Waters
Retention time: 15.349 min
Base peak: 762.6
Precursor m/z: 762.6007
Precursor type: [M+H]+
m/z	relative intensity
104.1075	16
125.0002	22
184.073	999
185.0767	42
186.077	3
478.3302	1
496.3409	1
506.3578	1
524.3707	4
525.3732	1
579.5354	1
762.6007	19
