Mass spectrum: PA(16:0/16:0); LC-ESI-QTOF; MS2; CE: 10; R=; [M+NH4]+
Name: PA(16:0/16:0)
Formula: C35H69O8P
Exact mass: 648.4730
SMILES: CCCCCCCCCCCCCCCC(=O)OC[C@H](COP(O)(O)=O)OC(=O)CCCCCCCCCCCCCCC
InChI: InChI=1S/C35H69O8P/c1-3-5-7-9-11-13-15-17-19-21-23-25-27-29-34(36)41-31-33(32-42-44(38,39)40)43-35(37)30-28-26-24-22-20-18-16-14-12-10-8-6-4-2/h33H,3-32H2,1-2H3,(H2,38,39,40)/t33-/m1/s1
Instrument: maXis plus UHR-ToF-MS, Bruker Daltonics
Instrument type: LC-ESI-QTOF
Ms type: MS2
Ion mode: POSITIVE
Ionization: ESI
Fragmentation mode: CID
Collision energy: 10
Column name: CORTECS UPLC C18 1.6um, 2.1x150mm, Waters
Retention time: 14.116 min
Base peak: 447.3461
Precursor m/z: 666.5068
Precursor type: [M+NH4]+
m/z	relative intensity
393.2375	43
447.3458	38
469.3291	69
469.3539	39
530.4288	39
551.5038	999
552.5055	391
553.5065	45
634.3654	45
649.4812	65
650.4782	62
666.5057	924
