Mass spectrum: PC(15:0/15:0); LC-ESI-QTOF; MS2; CE: 40; R=; [M+Na]+
Name: PC(15:0/15:0)
Name: 1,2-Dipentadecanoyl-sn-glycero-3-phosphocholine
Name: [(2R)-2,3-di(pentadecanoyloxy)propyl] 2-(trimethylazaniumyl)ethyl phosphate
Formula: C38H76NO8P
Exact mass: 705.5309
SMILES: CCCCCCCCCCCCCCC(=O)OC[C@H](COP([O-])(=O)OCC[N+](C)(C)C)OC(=O)CCCCCCCCCCCCCC
InChI: InChI=1S/C38H76NO8P/c1-6-8-10-12-14-16-18-20-22-24-26-28-30-37(40)44-34-36(35-46-48(42,43)45-33-32-39(3,4)5)47-38(41)31-29-27-25-23-21-19-17-15-13-11-9-7-2/h36H,6-35H2,1-5H3/t36-/m1/s1
Instrument: maXis plus UHR-ToF-MS, Bruker Daltonics
Instrument type: LC-ESI-QTOF
Ms type: MS2
Ion mode: POSITIVE
Ionization: ESI
Fragmentation mode: CID
Collision energy: 40
Column name: CORTECS UPLC C18 1.6um, 2.1x150mm, Waters
Retention time: 12.982 min
Base peak: 706.5371
Precursor m/z: 728.5201
Precursor type: [M+Na]+
m/z	relative intensity
95.086	30
109.1024	16
115.0758	17
123.116	17
133.0892	12
137.1317	13
145.9801	13
146.1099	15
146.982	999
147.986	16
148.986	17
148.9985	15
164.992	44
184.0717	35
225.2193	18
427.2212	71
464.3176	15
478.5743	14
523.4711	321
524.4762	135
545.4539	498
546.4574	140
547.458	21
669.4481	226
670.4464	116
728.5193	159
