Mass spectrum: PC(18:0/18:1(9Z)); LC-ESI-QTOF; MS2; CE: 20; R=; [M+H]+
Name: PC(18:0/18:1(9Z))
Name: 1-Stearoyl-2-oleoyl-sn-glycero-3-phosphocholine
Name: [(2R)-3-octadecanoyloxy-2-[(Z)-octadec-9-enoyl]oxypropyl] 2-(trimethylazaniumyl)ethyl phosphate
Formula: C44H86NO8P
Exact mass: 787.6091
SMILES: O(P(OC[C@@H](COC(CCCCCCCCCCCCCCCCC)=O)OC(CCCCCCC/C=C\CCCCCCCC)=O)(=O)[O-])CC[N+](C)(C)C
InChI: InChI=1S/C44H86NO8P/c1-6-8-10-12-14-16-18-20-22-24-26-28-30-32-34-36-43(46)50-40-42(41-52-54(48,49)51-39-38-45(3,4)5)53-44(47)37-35-33-31-29-27-25-23-21-19-17-15-13-11-9-7-2/h21,23,42H,6-20,22,24-41H2,1-5H3/b23-21-/t42-/m1/s1
Instrument: maXis plus UHR-ToF-MS, Bruker Daltonics
Instrument type: LC-ESI-QTOF
Ms type: MS2
Ion mode: POSITIVE
Ionization: ESI
Fragmentation mode: CID
Collision energy: 20
Column name: CORTECS UPLC C18 1.6um, 2.1x150mm, Waters
Retention time: 15.323 min
Base peak: 788.6151
Precursor m/z: 788.6164
Precursor type: [M+H]+
m/z	relative intensity
104.1073	2
125.0002	2
184.0725	169
787.6019	1
788.6165	999
